*GHG emissions output file

*DSSAT Cropping System Model Ver. 4.8.2.000 -release  JAN 23, 2026 17:32:35

*RUN   1        : No N                      WHAPS048 HWOC2501    1
 MODEL          : WHAPS048 - Wheat
 EXPERIMENT     : HWOC2501 WH
 DATA PATH      : C:/DSSAT48/Wheat/
 TREATMENT  1   : No N                      WHAPS048
  
!               |------ Daily (g/ha) -----|--- Cumulative (kg/ha) ---|---- Cum CO2-equiv kg[CO2eq]/ha ---|
!                    CO2      N2O      CH4      CO2      N2O      CH4      CO2      N2O      CH4    Total
!                g[C]/ha  g[N]/ha  g[C]/ha kg[C]/ha kg[N]/ha kg[C]/ha    CO2eq    CO2eq    CO2eq    CO2eq
@YEAR DOY   DAS   CO2GED   N2OGED   CH4GED    CO2EC    N2OEC    CH4EC    CCEQC    NCEQC    MCEQC    TCEQC
 2024 296     1    20683     0.00     0.00       21     0.00     0.00       76        0        0       76
 2024 297     2    20296     0.01     0.00       41     0.00     0.00      150        0        0      150
 2024 298     3    18220     0.02     0.00       59     0.00     0.00      217        0        0      217
 2024 299     4    16700     0.04     0.00       76     0.00     0.00      279        0        0      279
 2024 300     5    15700     0.06     0.00       92     0.00     0.00      336        0        0      336
 2024 301     6    14370     0.08     0.00      106     0.00     0.00      389        0        0      389
 2024 302     7    13427     0.09     0.00      119     0.00     0.00      438        0        0      438
 2024 303     8    14288     0.11     0.00      134     0.00     0.00      491        0        0      491
 2024 304     9    14893     0.13     0.00      149     0.00     0.00      545        0        0      546
 2024 305    10    14494     0.14     0.00      163     0.00     0.00      598        0        0      599
 2024 306    11    13922     0.15     0.00      177     0.00     0.00      650        0        0      650
 2024 307    12    12005     0.16     0.00      189     0.00     0.00      694        0        0      694
 2024 308    13     9997     0.17     0.00      199     0.00     0.00      730        1        0      731
 2024 309    14     7484     0.18     0.00      206     0.00     0.00      758        1        0      758
 2024 310    15     5406     0.18     0.00      212     0.00     0.00      778        1        0      778
 2024 311    16     3118     0.18     0.00      215     0.00     0.00      789        1        0      790
 2024 312    17     3080     0.18     0.00      218     0.00     0.00      800        1        0      801
 2024 313    18     2480     0.18     0.00      221     0.00     0.00      809        1        0      810
 2024 314    19     1753     0.18     0.00      222     0.00     0.00      816        1        0      817
 2024 315    20     1108     0.18     0.00      223     0.00     0.00      820        1        0      821
 2024 316    21     1219     0.18     0.00      225     0.00     0.00      824        1        0      826
 2024 317    22      616     0.11     0.00      225     0.00     0.00      827        1        0      828
 2024 318    23      376     0.11     0.00      226     0.00     0.00      828        1        0      829
 2024 319    24      206     0.11     0.00      226     0.00     0.00      829        1        0      830
 2024 320    25      181     0.12     0.00      226     0.00     0.00      829        1        0      831
 2024 321    26      177     0.14     0.00      226     0.00     0.00      830        2        0      832
 2024 322    27      174     0.16     0.00      226     0.00     0.00      831        2        0      832
 2024 323    28      184     0.11     0.00      227     0.00     0.00      831        2        0      833
 2024 324    29      305     0.01     0.00      227     0.00     0.00      833        2        0      834
 2024 325    30      544     0.01     0.00      227     0.00     0.00      835        2        0      836
 2024 326    31      418     0.01     0.00      228     0.00     0.00      836        2        0      838
 2024 327    32      278     0.03     0.00      228     0.00     0.00      837        2        0      839
 2024 328    33      137     0.05     0.00      228     0.00     0.00      838        2        0      839
 2024 329    34       83     0.09     0.00      228     0.00     0.00      838        2        0      840
 2024 330    35       69     0.13     0.00      228     0.00     0.00      838        2        0      840
 2024 331    36      146     0.13     0.00      229     0.00     0.00      839        2        0      841
 2024 332    37      388     0.05     0.00      229     0.00     0.00      840        2        0      842
 2024 333    38     1100     0.08     0.00      230     0.00     0.00      844        2        0      846
 2024 334    39     2237     0.03     0.00      232     0.00     0.00      852        2        0      854
 2024 335    40      919     0.07     0.00      233     0.00     0.00      856        2        0      858
 2024 336    41      438     0.12     0.00      234     0.00     0.00      857        2        0      859
 2024 337    42      138     0.14     0.00      234     0.00     0.00      858        2        0      860
 2024 338    43       59     0.04     0.00      234     0.00     0.00      858        2        0      860
 2024 339    44       47     0.03     0.00      234     0.00     0.00      858        2        0      860
 2024 340    45       37     0.07     0.00      234     0.00     0.00      858        2        0      861
 2024 341    46       30     0.10     0.00      234     0.00     0.00      859        2        0      861
 2024 342    47       89     0.01     0.00      234     0.00     0.00      859        2        0      861
 2024 343    48      118     0.02     0.00      234     0.00     0.00      859        2        0      861
 2024 344    49       85     0.04     0.00      234     0.00     0.00      860        2        0      862
 2024 345    50       94     0.07     0.00      234     0.00     0.00      860        2        0      862
 2024 346    51       97     0.10     0.00      234     0.00     0.00      860        2        0      863
 2024 347    52       45     0.12     0.00      234     0.01     0.00      860        2        0      863
 2024 348    53       28     0.14     0.00      234     0.01     0.00      861        2        0      863
 2024 349    54       15     0.15     0.00      235     0.01     0.00      861        2        0      863
 2024 350    55       11     0.15     0.00      235     0.01     0.00      861        3        0      863
 2024 351    56       12     0.13     0.00      235     0.01     0.00      861        3        0      863
 2024 352    57       28     0.12     0.00      235     0.01     0.00      861        3        0      863
 2024 353    58       67     0.13     0.00      235     0.01     0.00      861        3        0      864
 2024 354    59      158     0.14     0.00      235     0.01     0.00      862        3        0      864
 2024 355    60      408     0.05     0.00      235     0.01     0.00      863        3        0      866
 2024 356    61      377     0.07     0.00      236     0.01     0.00      865        3        0      867
 2024 357    62      225     0.06     0.00      236     0.01     0.00      865        3        0      868
 2024 358    63      155     0.01     0.00      236     0.01     0.00      866        3        0      869
 2024 359    64       73     0.03     0.00      236     0.01     0.00      866        3        0      869
 2024 360    65       28     0.06     0.00      236     0.01     0.00      866        3        0      869
 2024 361    66       27     0.10     0.00      236     0.01     0.00      866        3        0      869
 2024 362    67       16     0.12     0.00      236     0.01     0.00      866        3        0      869
 2024 363    68        5     0.13     0.00      236     0.01     0.00      866        3        0      870
 2024 364    69        3     0.13     0.00      236     0.01     0.00      866        3        0      870
 2024 365    70        0     0.13     0.00      236     0.01     0.00      866        3        0      870
 2024 366    71        0     0.12     0.00      236     0.01     0.00      866        3        0      870
 2025 001    72        0     0.12     0.00      236     0.01     0.00      866        3        0      870
 2025 002    73        0     0.12     0.00      236     0.01     0.00      866        3        0      870
 2025 003    74        0     0.00     0.00      236     0.01     0.00      866        3        0      870
 2025 004    75        0     0.03     0.00      236     0.01     0.00      866        3        0      870
 2025 005    76        0     0.07     0.00      236     0.01     0.00      866        3        0      870
 2025 006    77        0     0.00     0.00      236     0.01     0.00      866        3        0      870
 2025 007    78        3     0.02     0.00      236     0.01     0.00      866        3        0      870
 2025 008    79        4     0.04     0.00      236     0.01     0.00      866        3        0      870
 2025 009    80       13     0.00     0.00      236     0.01     0.00      867        3        0      870
 2025 010    81       57     0.00     0.00      236     0.01     0.00      867        3        0      870
 2025 011    82       39     0.03     0.00      236     0.01     0.00      867        3        0      870
 2025 012    83       10     0.06     0.00      236     0.01     0.00      867        4        0      870
 2025 013    84        2     0.09     0.00      236     0.01     0.00      867        4        0      870
 2025 014    85        0     0.10     0.00      236     0.01     0.00      867        4        0      871
 2025 015    86        0     0.11     0.00      236     0.01     0.00      867        4        0      871
 2025 016    87        0     0.09     0.00      236     0.01     0.00      867        4        0      871
 2025 017    88        0     0.10     0.00      236     0.01     0.00      867        4        0      871
 2025 018    89        0     0.10     0.00      236     0.01     0.00      867        4        0      871
 2025 019    90        0     0.11     0.00      236     0.01     0.00      867        4        0      871
 2025 020    91        0     0.11     0.00      236     0.01     0.00      867        4        0      871
 2025 021    92        0     0.11     0.00      236     0.01     0.00      867        4        0      871
 2025 022    93        0     0.10     0.00      236     0.01     0.00      867        4        0      871
 2025 023    94        0     0.10     0.00      236     0.01     0.00      867        4        0      871
 2025 024    95        0     0.05     0.00      236     0.01     0.00      867        4        0      871
 2025 025    96        2     0.07     0.00      236     0.01     0.00      867        4        0      871
 2025 026    97       12     0.09     0.00      236     0.01     0.00      867        4        0      871
 2025 027    98       30     0.09     0.00      236     0.01     0.00      867        4        0      871
 2025 028    99      116     0.02     0.00      236     0.01     0.00      868        4        0      872
 2025 029   100      175     0.00     0.00      237     0.01     0.00      868        4        0      872
 2025 030   101      191     0.02     0.00      237     0.01     0.00      869        4        0      873
 2025 031   102      103     0.04     0.00      237     0.01     0.00      869        4        0      873
 2025 032   103       55     0.05     0.00      237     0.01     0.00      869        4        0      874
 2025 033   104       11     0.08     0.00      237     0.01     0.00      869        4        0      874
 2025 034   105        3     0.09     0.00      237     0.01     0.00      870        4        0      874
 2025 035   106        0     0.09     0.00      237     0.01     0.00      870        4        0      874
 2025 036   107        0     0.09     0.00      237     0.01     0.00      870        4        0      874
 2025 037   108        0     0.09     0.00      237     0.01     0.00      870        4        0      874
 2025 038   109        0     0.09     0.00      237     0.01     0.00      870        4        0      874
 2025 039   110        0     0.09     0.00      237     0.01     0.00      870        5        0      874
 2025 040   111        0     0.09     0.00      237     0.01     0.00      870        5        0      874
 2025 041   112        0     0.09     0.00      237     0.01     0.00      870        5        0      874
 2025 042   113        0     0.08     0.00      237     0.01     0.00      870        5        0      874
 2025 043   114        0     0.01     0.00      237     0.01     0.00      870        5        0      874
 2025 044   115        3     0.00     0.00      237     0.01     0.00      870        5        0      874
 2025 045   116        2     0.00     0.00      237     0.01     0.00      870        5        0      874
 2025 046   117        0     0.02     0.00      237     0.01     0.00      870        5        0      874
 2025 047   118        0     0.05     0.00      237     0.01     0.00      870        5        0      874
 2025 048   119        0     0.07     0.00      237     0.01     0.00      870        5        0      874
 2025 049   120        0     0.08     0.00      237     0.01     0.00      870        5        0      874
 2025 050   121        0     0.08     0.00      237     0.01     0.00      870        5        0      874
 2025 051   122        0     0.08     0.00      237     0.01     0.00      870        5        0      874
 2025 052   123        0     0.08     0.00      237     0.01     0.00      870        5        0      874
 2025 053   124        0     0.08     0.00      237     0.01     0.00      870        5        0      874
 2025 054   125        0     0.08     0.00      237     0.01     0.00      870        5        0      874
 2025 055   126        5     0.08     0.00      237     0.01     0.00      870        5        0      875
 2025 056   127      122     0.08     0.00      237     0.01     0.00      870        5        0      875
 2025 057   128     1465     0.07     0.00      239     0.01     0.00      875        5        0      880
 2025 058   129      364     0.06     0.00      239     0.01     0.00      877        5        0      882
 2025 059   130      174     0.05     0.00      239     0.01     0.00      877        5        0      882
 2025 060   131       34     0.04     0.00      239     0.01     0.00      877        5        0      883
 2025 061   132        7     0.05     0.00      239     0.01     0.00      877        5        0      883
 2025 062   133        0     0.07     0.00      239     0.01     0.00      877        5        0      883
 2025 063   134        0     0.07     0.00      239     0.01     0.00      877        5        0      883
 2025 064   135        1     0.07     0.00      239     0.01     0.00      877        5        0      883
 2025 065   136        8     0.07     0.00      239     0.01     0.00      878        5        0      883
 2025 066   137       65     0.07     0.00      239     0.01     0.00      878        5        0      883
 2025 067   138      837     0.07     0.00      240     0.01     0.00      881        5        0      886
 2025 068   139     2749     0.07     0.00      243     0.01     0.00      891        5        0      896
 2025 069   140     4120     0.07     0.00      247     0.01     0.00      906        5        0      911
 2025 070   141     5135     0.06     0.00      252     0.01     0.00      925        5        0      930
 2025 071   142     5011     0.06     0.00      257     0.01     0.00      943        5        0      949
 2025 072   143     4269     0.06     0.00      261     0.01     0.00      959        6        0      964
 2025 073   144     2480     0.05     0.00      264     0.01     0.00      968        6        0      974
 2025 074   145      880     0.06     0.00      265     0.01     0.00      971        6        0      977
 2025 075   146       80     0.06     0.00      265     0.01     0.00      972        6        0      977
 2025 076   147       19     0.07     0.00      265     0.01     0.00      972        6        0      977
 2025 077   148        3     0.07     0.00      265     0.01     0.00      972        6        0      977
 2025 078   149        0     0.07     0.00      265     0.01     0.00      972        6        0      977
 2025 079   150        0     0.06     0.00      265     0.01     0.00      972        6        0      977
 2025 080   151        4     0.06     0.00      265     0.01     0.00      972        6        0      977
 2025 081   152       69     0.07     0.00      265     0.01     0.00      972        6        0      978
 2025 082   153     2103     0.06     0.00      267     0.01     0.00      980        6        0      985
 2025 083   154     5012     0.05     0.00      272     0.01     0.00      998        6        0     1004
 2025 084   155     6452     0.01     0.00      278     0.01     0.00     1022        6        0     1028
 2025 085   156     7135     0.02     0.00      286     0.01     0.00     1048        6        0     1054
 2025 086   157     5991     0.02     0.00      292     0.01     0.00     1070        6        0     1076
 2025 087   158     5216     0.04     0.00      297     0.01     0.00     1089        6        0     1095
 2025 088   159     4751     0.07     0.00      301     0.01     0.00     1106        6        0     1112
 2025 089   160     4315     0.05     0.00      306     0.01     0.00     1122        6        0     1128
 2025 090   161     3037     0.06     0.00      309     0.01     0.00     1133        6        0     1139
 2025 091   162     2586     0.06     0.00      311     0.01     0.00     1143        6        0     1149
 2025 092   163     2091     0.08     0.00      314     0.01     0.00     1151        6        0     1157
 2025 093   164     2512     0.08     0.00      316     0.01     0.00     1160        6        0     1166
 2025 094   165     3148     0.08     0.00      319     0.01     0.00     1171        6        0     1177
 2025 095   166     4378     0.09     0.00      324     0.01     0.00     1187        6        0     1194
 2025 096   167     5661     0.09     0.00      329     0.01     0.00     1208        6        0     1214
 2025 097   168     4736     0.09     0.00      334     0.01     0.00     1226        6        0     1232
 2025 098   169     3209     0.09     0.00      337     0.01     0.00     1237        6        0     1244
 2025 099   170     1904     0.09     0.00      339     0.01     0.00     1244        6        0     1251
 2025 100   171      882     0.10     0.00      340     0.01     0.00     1248        6        0     1254
 2025 101   172      209     0.10     0.00      340     0.01     0.00     1248        6        0     1255
 2025 102   173     1487     0.10     0.00      342     0.01     0.00     1254        6        0     1260
 2025 103   174     3311     0.10     0.00      345     0.01     0.00     1266        6        0     1272
 2025 104   175     4727     0.10     0.00      350     0.01     0.00     1283        7        0     1290
 2025 105   176     6591     0.09     0.00      356     0.01     0.00     1308        7        0     1314
 2025 106   177     8205     0.09     0.00      364     0.01     0.00     1338        7        0     1344
 2025 107   178     9902     0.09     0.00      374     0.01     0.00     1374        7        0     1381
 2025 108   179    10281     0.09     0.00      385     0.01     0.00     1412        7        0     1418
 2025 109   180     9211     0.10     0.00      394     0.01     0.00     1446        7        0     1452
 2025 110   181     8193     0.11     0.00      402     0.01     0.00     1476        7        0     1482
 2025 111   182     8129     0.11     0.00      410     0.01     0.00     1505        7        0     1512
 2025 112   183     6757     0.11     0.00      417     0.01     0.00     1530        7        0     1537
 2025 113   184     6550     0.12     0.00      424     0.01     0.00     1554        7        0     1561
 2025 114   185     8323     0.03     0.00      432     0.01     0.00     1585        7        0     1592
 2025 115   186     7697     0.01     0.00      440     0.01     0.00     1613        7        0     1620
 2025 116   187     6353     0.02     0.00      446     0.01     0.00     1636        7        0     1643
 2025 117   188     6217     0.08     0.00      452     0.01     0.00     1659        7        0     1666
 2025 118   189     6492     0.14     0.00      459     0.02     0.00     1683        7        0     1690
 2025 119   190     6672     0.16     0.00      465     0.02     0.00     1707        7        0     1715
 2025 120   191     7738     0.16     0.00      473     0.02     0.00     1736        7        0     1743
 2025 121   192     8900     0.16     0.00      482     0.02     0.00     1769        7        0     1776
 2025 122   193    10706     0.17     0.00      493     0.02     0.00     1808        7        0     1815
 2025 123   194    11681     0.18     0.00      504     0.02     0.00     1851        7        0     1858
 2025 124   195    13273     0.03     0.00      518     0.02     0.00     1899        7        0     1907
 2025 125   196    11792     0.01     0.00      529     0.02     0.00     1943        7        0     1950
 2025 126   197    11015     0.08     0.00      540     0.02     0.00     1983        8        0     1991
 2025 127   198     9048     0.17     0.00      549     0.02     0.00     2016        8        0     2024
 2025 128   199     7202     0.22     0.00      557     0.02     0.00     2043        8        0     2050
 2025 129   200     5910     0.22     0.00      563     0.02     0.00     2064        8        0     2072
 2025 130   201     5544     0.22     0.00      568     0.02     0.00     2085        8        0     2093
 2025 131   202     5627     0.22     0.00      574     0.02     0.00     2105        8        0     2113
 2025 132   203     5932     0.23     0.00      580     0.02     0.00     2127        8        0     2135
 2025 133   204     6324     0.23     0.00      586     0.02     0.00     2150        8        0     2159
 2025 134   205     6319     0.23     0.00      592     0.02     0.00     2174        8        0     2182
 2025 135   206     6579     0.23     0.00      599     0.02     0.00     2198        8        0     2206
 2025 136   207     6643     0.23     0.00      605     0.02     0.00     2222        9        0     2231
 2025 137   208     5952     0.23     0.00      611     0.02     0.00     2244        9        0     2253
 2025 138   209     5477     0.23     0.00      617     0.02     0.00     2264        9        0     2273
 2025 139   210     5269     0.22     0.00      622     0.02     0.00     2283        9        0     2292
 2025 140   211     4960     0.22     0.00      627     0.02     0.00     2302        9        0     2311
 2025 141   212     5183     0.22     0.00      632     0.02     0.00     2321        9        0     2330
 2025 142   213     6301     0.19     0.00      639     0.02     0.00     2344        9        0     2353
 2025 143   214     5827     0.20     0.00      644     0.02     0.00     2365        9        0     2374
 2025 144   215     5154     0.20     0.00      650     0.02     0.00     2384        9        0     2393
 2025 145   216     4627     0.20     0.00      654     0.02     0.00     2401        9        0     2410
 2025 146   217     5161     0.17     0.00      659     0.02     0.00     2420       10        0     2430
 2025 147   218     5209     0.17     0.00      665     0.02     0.00     2439       10        0     2449
 2025 148   219     5477     0.17     0.00      670     0.02     0.00     2459       10        0     2469
 2025 149   220     6510     0.17     0.00      677     0.02     0.00     2483       10        0     2493
 2025 150   221     7014     0.18     0.00      684     0.02     0.00     2509       10        0     2519
 2025 151   222     7640     0.18     0.00      691     0.02     0.00     2537       10        0     2547
 2025 152   223     8202     0.19     0.00      699     0.02     0.00     2567       10        0     2577
 2025 153   224     9415     0.19     0.00      709     0.02     0.00     2602       10        0     2612
 2025 154   225    10756     0.02     0.00      720     0.02     0.00     2641       10        0     2651
 2025 155   226    11792     0.11     0.00      731     0.02     0.00     2684       10        0     2694
 2025 156   227    11127     0.08     0.00      743     0.02     0.00     2725       10        0     2735
 2025 157   228    10371     0.14     0.00      753     0.02     0.00     2763       10        0     2773
 2025 158   229     9386     0.06     0.00      762     0.02     0.00     2798       10        0     2808
 2025 159   230     9543     0.11     0.00      772     0.02     0.00     2833       10        0     2843
 2025 160   231     8544     0.11     0.00      780     0.02     0.00     2864       10        0     2874
 2025 161   232     7797     0.25     0.00      788     0.02     0.00     2893       11        0     2903
 2025 162   233     7159     0.27     0.00      795     0.02     0.00     2919       11        0     2930
 2025 163   234     7041     0.27     0.00      802     0.02     0.00     2945       11        0     2956
 2025 164   235     6918     0.28     0.00      809     0.02     0.00     2970       11        0     2981
 2025 165   236     7503     0.29     0.00      817     0.02     0.00     2998       11        0     3009
 2025 166   237     8179     0.29     0.00      825     0.02     0.00     3028       11        0     3039
 2025 167   238    10400     0.26     0.00      835     0.02     0.00     3066       11        0     3077
 2025 168   239     9950     0.26     0.00      845     0.02     0.00     3102       11        0     3114
 2025 169   240     9364     0.27     0.00      855     0.02     0.00     3137       12        0     3148
 2025 170   241     8670     0.28     0.00      863     0.02     0.00     3169       12        0     3180
 2025 171   242     7826     0.29     0.00      871     0.03     0.00     3197       12        0     3209
 2025 172   243     7099     0.30     0.00      878     0.03     0.00     3223       12        0     3235
 2025 173   244     6853     0.31     0.00      885     0.03     0.00     3248       12        0     3261
 2025 174   245     6735     0.31     0.00      892     0.03     0.00     3273       12        0     3285
 2025 175   246     6430     0.32     0.00      898     0.03     0.00     3297       12        0     3309
 2025 176   247     6126     0.32     0.00      904     0.03     0.00     3319       13        0     3332
 2025 177   248     6101     0.31     0.00      911     0.03     0.00     3342       13        0     3354
 2025 178   249     6022     0.31     0.00      917     0.03     0.00     3364       13        0     3377
 2025 179   250     6867     0.26     0.00      923     0.03     0.00     3389       13        0     3402
 2025 180   251     6652     0.28     0.00      930     0.03     0.00     3413       13        0     3426
 2025 181   252     6596     0.29     0.00      937     0.03     0.00     3438       13        0     3451
 2025 182   253     6463     0.30     0.00      943     0.03     0.00     3461       13        0     3475
 2025 183   254     7304     0.28     0.00      950     0.03     0.00     3488       13        0     3502
 2025 184   255     7386     0.29     0.00      958     0.03     0.00     3515       14        0     3529
 2025 185   256     6955     0.30     0.00      965     0.03     0.00     3541       14        0     3555
 2025 186   257     6569     0.31     0.00      971     0.03     0.00     3565       14        0     3579
 2025 187   258     6038     0.32     0.00      977     0.03     0.00     3587       14        0     3601
 2025 188   259     5550     0.32     0.00      983     0.03     0.00     3607       14        0     3622
 2025 189   260     5085     0.32     0.00      988     0.03     0.00     3626       14        0     3640
 2025 190   261     4864     0.30     0.00      993     0.03     0.00     3644       15        0     3658
 2025 191   262     4330     0.31     0.00      997     0.03     0.00     3660       15        0     3674
 2025 192   263     4060     0.31     0.00     1001     0.03     0.00     3675       15        0     3689
 2025 193   264     3897     0.31     0.00     1005     0.03     0.00     3689       15        0     3704
 2025 194   265     3841     0.31     0.00     1009     0.03     0.00     3703       15        0     3718
 2025 195   266     4104     0.31     0.00     1013     0.03     0.00     3718       15        0     3733
 2025 196   267     5931     0.25     0.00     1019     0.03     0.00     3740       15        0     3755
 2025 197   268     5718     0.26     0.00     1025     0.03     0.00     3761       15        0     3776
 2025 198   269     6721     0.02     0.00     1031     0.03     0.00     3786       15        0     3801
 2025 199   270     6576     0.13     0.00     1038     0.03     0.00     3810       16        0     3825
 2025 200   271     6365     0.31     0.00     1044     0.03     0.00     3833       16        0     3849
 2025 201   272     6122     0.31     0.00     1051     0.03     0.00     3856       16        0     3871
 2025 202   273     6194     0.31     0.00     1057     0.03     0.00     3878       16        0     3894
 2025 203   274     6181     0.02     0.00     1063     0.03     0.00     3901       16        0     3917
 2025 204   275     6662     0.03     0.00     1070     0.03     0.00     3925       16        0     3941
 2025 205   276     6881     0.19     0.00     1076     0.03     0.00     3951       16        0     3967
 2025 206   277     6470     0.09     0.00     1083     0.03     0.00     3974       16        0     3991
 2025 207   278     6006     0.04     0.00     1089     0.03     0.00     3996       16        0     4013
 2025 208   279     5918     0.03     0.00     1095     0.03     0.00     4018       16        0     4034
 2025 209   280     5946     0.04     0.00     1101     0.03     0.00     4040       16        0     4056
 2025 210   281     5661     0.03     0.00     1106     0.03     0.00     4061       16        0     4077
 2025 211   282     5755     0.13     0.00     1112     0.03     0.00     4082       16        0     4098
 2025 212   283     5599     0.16     0.00     1118     0.03     0.00     4102       16        0     4119
 2025 213   284     5496     0.25     0.00     1123     0.04     0.00     4123       16        0     4139
 2025 214   285     5216     0.06     0.00     1129     0.04     0.00     4142       16        0     4158
 2025 215   286     5031     0.04     0.00     1134     0.04     0.00     4160       16        0     4177
 2025 216   287     5023     0.16     0.00     1139     0.04     0.00     4179       17        0     4195
 2025 217   288     5099     0.16     0.00     1144     0.04     0.00     4197       17        0     4214
 2025 218   289     5491     0.41     0.00     1149     0.04     0.00     4218       17        0     4234
 2025 219   290     5448     0.68     0.00     1155     0.04     0.00     4238       17        0     4255
 2025 220   291     5463     0.69     0.00     1160     0.04     0.00     4258       17        0     4275
 2025 221   292     5770     0.70     0.00     1166     0.04     0.00     4279       18        0     4297

*DSSAT Cropping System Model Ver. 4.8.2.000 -release  JAN 23, 2026 17:32:35

*RUN   2        : 147 kg[N]/ha - broadcast  WHAPS048 HWOC2501    3
 MODEL          : WHAPS048 - Wheat
 EXPERIMENT     : HWOC2501 WH
 DATA PATH      : C:/DSSAT48/Wheat/
 TREATMENT  3   : 147 kg[N]/ha - broadcast  WHAPS048
  
!               |------ Daily (g/ha) -----|--- Cumulative (kg/ha) ---|---- Cum CO2-equiv kg[CO2eq]/ha ---|
!                    CO2      N2O      CH4      CO2      N2O      CH4      CO2      N2O      CH4    Total
!                g[C]/ha  g[N]/ha  g[C]/ha kg[C]/ha kg[N]/ha kg[C]/ha    CO2eq    CO2eq    CO2eq    CO2eq
@YEAR DOY   DAS   CO2GED   N2OGED   CH4GED    CO2EC    N2OEC    CH4EC    CCEQC    NCEQC    MCEQC    TCEQC
 2024 296     1    20683     0.00     0.00       21     0.00     0.00       76        0        0       76
 2024 297     2    20296     0.01     0.00       41     0.00     0.00      150        0        0      150
 2024 298     3    18220     0.02     0.00       59     0.00     0.00      217        0        0      217
 2024 299     4    16700     0.04     0.00       76     0.00     0.00      279        0        0      279
 2024 300     5    15700     0.06     0.00       92     0.00     0.00      336        0        0      336
 2024 301     6    14370     0.08     0.00      106     0.00     0.00      389        0        0      389
 2024 302     7    13427     0.09     0.00      119     0.00     0.00      438        0        0      438
 2024 303     8    14288     0.11     0.00      134     0.00     0.00      491        0        0      491
 2024 304     9    14893     0.13     0.00      149     0.00     0.00      545        0        0      546
 2024 305    10    14494     0.14     0.00      163     0.00     0.00      598        0        0      599
 2024 306    11    13922     0.15     0.00      177     0.00     0.00      650        0        0      650
 2024 307    12    12005     0.16     0.00      189     0.00     0.00      694        0        0      694
 2024 308    13     9997     0.17     0.00      199     0.00     0.00      730        1        0      731
 2024 309    14     7484     0.18     0.00      206     0.00     0.00      758        1        0      758
 2024 310    15     5406     0.18     0.00      212     0.00     0.00      778        1        0      778
 2024 311    16     3118     0.18     0.00      215     0.00     0.00      789        1        0      790
 2024 312    17     3080     0.18     0.00      218     0.00     0.00      800        1        0      801
 2024 313    18     2480     0.18     0.00      221     0.00     0.00      809        1        0      810
 2024 314    19     1753     0.18     0.00      222     0.00     0.00      816        1        0      817
 2024 315    20     1108     0.18     0.00      223     0.00     0.00      820        1        0      821
 2024 316    21     1219     0.18     0.00      225     0.00     0.00      824        1        0      826
 2024 317    22      616     0.11     0.00      225     0.00     0.00      827        1        0      828
 2024 318    23      376     0.11     0.00      226     0.00     0.00      828        1        0      829
 2024 319    24      206     0.11     0.00      226     0.00     0.00      829        1        0      830
 2024 320    25      181     0.12     0.00      226     0.00     0.00      829        1        0      831
 2024 321    26      177     0.14     0.00      226     0.00     0.00      830        2        0      832
 2024 322    27      174     0.16     0.00      226     0.00     0.00      831        2        0      832
 2024 323    28      184     0.11     0.00      227     0.00     0.00      831        2        0      833
 2024 324    29      305     0.01     0.00      227     0.00     0.00      833        2        0      834
 2024 325    30      544     0.01     0.00      227     0.00     0.00      835        2        0      836
 2024 326    31      418     0.01     0.00      228     0.00     0.00      836        2        0      838
 2024 327    32      278     0.03     0.00      228     0.00     0.00      837        2        0      839
 2024 328    33      137     0.05     0.00      228     0.00     0.00      838        2        0      839
 2024 329    34       83     0.09     0.00      228     0.00     0.00      838        2        0      840
 2024 330    35       69     0.13     0.00      228     0.00     0.00      838        2        0      840
 2024 331    36      146     0.13     0.00      229     0.00     0.00      839        2        0      841
 2024 332    37      388     0.05     0.00      229     0.00     0.00      840        2        0      842
 2024 333    38     1100     0.08     0.00      230     0.00     0.00      844        2        0      846
 2024 334    39     2237     0.03     0.00      232     0.00     0.00      852        2        0      854
 2024 335    40      919     0.07     0.00      233     0.00     0.00      856        2        0      858
 2024 336    41      438     0.12     0.00      234     0.00     0.00      857        2        0      859
 2024 337    42      138     0.14     0.00      234     0.00     0.00      858        2        0      860
 2024 338    43       59     0.04     0.00      234     0.00     0.00      858        2        0      860
 2024 339    44       47     0.03     0.00      234     0.00     0.00      858        2        0      860
 2024 340    45       37     0.07     0.00      234     0.00     0.00      858        2        0      861
 2024 341    46       30     0.10     0.00      234     0.00     0.00      859        2        0      861
 2024 342    47       89     0.01     0.00      234     0.00     0.00      859        2        0      861
 2024 343    48      118     0.02     0.00      234     0.00     0.00      859        2        0      861
 2024 344    49       85     0.04     0.00      234     0.00     0.00      860        2        0      862
 2024 345    50       94     0.07     0.00      234     0.00     0.00      860        2        0      862
 2024 346    51       97     0.10     0.00      234     0.00     0.00      860        2        0      863
 2024 347    52       45     0.12     0.00      234     0.01     0.00      860        2        0      863
 2024 348    53       28     0.14     0.00      234     0.01     0.00      861        2        0      863
 2024 349    54       15     0.15     0.00      235     0.01     0.00      861        2        0      863
 2024 350    55       11     0.15     0.00      235     0.01     0.00      861        3        0      863
 2024 351    56       12     0.13     0.00      235     0.01     0.00      861        3        0      863
 2024 352    57       28     0.12     0.00      235     0.01     0.00      861        3        0      863
 2024 353    58       67     0.13     0.00      235     0.01     0.00      861        3        0      864
 2024 354    59      158     0.14     0.00      235     0.01     0.00      862        3        0      864
 2024 355    60      408     0.05     0.00      235     0.01     0.00      863        3        0      866
 2024 356    61      377     0.07     0.00      236     0.01     0.00      865        3        0      867
 2024 357    62      225     0.06     0.00      236     0.01     0.00      865        3        0      868
 2024 358    63      155     0.01     0.00      236     0.01     0.00      866        3        0      869
 2024 359    64       73     0.03     0.00      236     0.01     0.00      866        3        0      869
 2024 360    65       28     0.06     0.00      236     0.01     0.00      866        3        0      869
 2024 361    66       27     0.10     0.00      236     0.01     0.00      866        3        0      869
 2024 362    67       16     0.12     0.00      236     0.01     0.00      866        3        0      869
 2024 363    68        5     0.13     0.00      236     0.01     0.00      866        3        0      870
 2024 364    69        3     0.13     0.00      236     0.01     0.00      866        3        0      870
 2024 365    70        0     0.13     0.00      236     0.01     0.00      866        3        0      870
 2024 366    71        0     0.12     0.00      236     0.01     0.00      866        3        0      870
 2025 001    72        0     0.12     0.00      236     0.01     0.00      866        3        0      870
 2025 002    73        0     0.12     0.00      236     0.01     0.00      866        3        0      870
 2025 003    74        0     0.00     0.00      236     0.01     0.00      866        3        0      870
 2025 004    75        0     0.03     0.00      236     0.01     0.00      866        3        0      870
 2025 005    76        0     0.07     0.00      236     0.01     0.00      866        3        0      870
 2025 006    77        0     0.00     0.00      236     0.01     0.00      866        3        0      870
 2025 007    78        3     0.02     0.00      236     0.01     0.00      866        3        0      870
 2025 008    79        4     0.04     0.00      236     0.01     0.00      866        3        0      870
 2025 009    80       13     0.00     0.00      236     0.01     0.00      867        3        0      870
 2025 010    81       57     0.00     0.00      236     0.01     0.00      867        3        0      870
 2025 011    82       39     0.03     0.00      236     0.01     0.00      867        3        0      870
 2025 012    83       10     0.06     0.00      236     0.01     0.00      867        4        0      870
 2025 013    84        2     0.09     0.00      236     0.01     0.00      867        4        0      870
 2025 014    85        0     0.10     0.00      236     0.01     0.00      867        4        0      871
 2025 015    86        0     0.11     0.00      236     0.01     0.00      867        4        0      871
 2025 016    87        0     0.09     0.00      236     0.01     0.00      867        4        0      871
 2025 017    88        0     0.10     0.00      236     0.01     0.00      867        4        0      871
 2025 018    89        0     0.10     0.00      236     0.01     0.00      867        4        0      871
 2025 019    90        0     0.11     0.00      236     0.01     0.00      867        4        0      871
 2025 020    91        0     0.11     0.00      236     0.01     0.00      867        4        0      871
 2025 021    92        0     0.11     0.00      236     0.01     0.00      867        4        0      871
 2025 022    93        0     0.10     0.00      236     0.01     0.00      867        4        0      871
 2025 023    94        0     0.10     0.00      236     0.01     0.00      867        4        0      871
 2025 024    95        0     0.05     0.00      236     0.01     0.00      867        4        0      871
 2025 025    96        2     0.07     0.00      236     0.01     0.00      867        4        0      871
 2025 026    97       12     0.09     0.00      236     0.01     0.00      867        4        0      871
 2025 027    98       30     0.09     0.00      236     0.01     0.00      867        4        0      871
 2025 028    99      116     0.02     0.00      236     0.01     0.00      868        4        0      872
 2025 029   100      175     0.00     0.00      237     0.01     0.00      868        4        0      872
 2025 030   101      191     0.02     0.00      237     0.01     0.00      869        4        0      873
 2025 031   102      103     0.04     0.00      237     0.01     0.00      869        4        0      873
 2025 032   103       55     0.05     0.00      237     0.01     0.00      869        4        0      874
 2025 033   104       11     0.08     0.00      237     0.01     0.00      869        4        0      874
 2025 034   105        3     0.09     0.00      237     0.01     0.00      870        4        0      874
 2025 035   106        0     0.09     0.00      237     0.01     0.00      870        4        0      874
 2025 036   107        0     0.09     0.00      237     0.01     0.00      870        4        0      874
 2025 037   108        0     0.09     0.00      237     0.01     0.00      870        4        0      874
 2025 038   109        0     0.09     0.00      237     0.01     0.00      870        4        0      874
 2025 039   110        0     0.09     0.00      237     0.01     0.00      870        5        0      874
 2025 040   111        0     0.09     0.00      237     0.01     0.00      870        5        0      874
 2025 041   112        0     0.09     0.00      237     0.01     0.00      870        5        0      874
 2025 042   113        0     0.08     0.00      237     0.01     0.00      870        5        0      874
 2025 043   114        0     0.01     0.00      237     0.01     0.00      870        5        0      874
 2025 044   115        3     0.00     0.00      237     0.01     0.00      870        5        0      874
 2025 045   116        2     0.00     0.00      237     0.01     0.00      870        5        0      874
 2025 046   117        0     0.02     0.00      237     0.01     0.00      870        5        0      874
 2025 047   118        0     0.05     0.00      237     0.01     0.00      870        5        0      874
 2025 048   119        0     0.07     0.00      237     0.01     0.00      870        5        0      874
 2025 049   120        0     0.08     0.00      237     0.01     0.00      870        5        0      874
 2025 050   121        0     0.08     0.00      237     0.01     0.00      870        5        0      874
 2025 051   122        0     0.08     0.00      237     0.01     0.00      870        5        0      874
 2025 052   123        0     0.08     0.00      237     0.01     0.00      870        5        0      874
 2025 053   124        0     0.08     0.00      237     0.01     0.00      870        5        0      874
 2025 054   125        0     0.08     0.00      237     0.01     0.00      870        5        0      874
 2025 055   126        5     0.08     0.00      237     0.01     0.00      870        5        0      875
 2025 056   127      122     0.08     0.00      237     0.01     0.00      870        5        0      875
 2025 057   128     1465     0.07     0.00      239     0.01     0.00      875        5        0      880
 2025 058   129      364     0.06     0.00      239     0.01     0.00      877        5        0      882
 2025 059   130      174     0.05     0.00      239     0.01     0.00      877        5        0      882
 2025 060   131       34     0.04     0.00      239     0.01     0.00      877        5        0      883
 2025 061   132        7     0.05     0.00      239     0.01     0.00      877        5        0      883
 2025 062   133        0     0.07     0.00      239     0.01     0.00      877        5        0      883
 2025 063   134        0     0.07     0.00      239     0.01     0.00      877        5        0      883
 2025 064   135        1     0.07     0.00      239     0.01     0.00      877        5        0      883
 2025 065   136        8     0.07     0.00      239     0.01     0.00      878        5        0      883
 2025 066   137       65     0.63     0.00      239     0.01     0.00      878        6        0      883
 2025 067   138      837     1.14     0.00      240     0.01     0.00      881        6        0      887
 2025 068   139     2741     1.56     0.00      243     0.01     0.00      891        7        0      898
 2025 069   140     4088     1.88     0.00      247     0.02     0.00      906        8        0      914
 2025 070   141     5058     2.09     0.00      252     0.02     0.00      924        9        0      933
 2025 071   142     4921     2.28     0.00      257     0.02     0.00      943       10        0      952
 2025 072   143     4189     2.28     0.00      261     0.02     0.00      958       11        0      969
 2025 073   144     2451     2.03     0.00      263     0.03     0.00      967       12        0      979
 2025 074   145      877     2.01     0.00      264     0.03     0.00      970       13        0      983
 2025 075   146       79     2.18     0.00      264     0.03     0.00      970       14        0      984
 2025 076   147       19     2.14     0.00      264     0.03     0.00      970       15        0      985
 2025 077   148        3     2.02     0.00      264     0.03     0.00      970       16        0      986
 2025 078   149        0     1.91     0.00      264     0.04     0.00      970       17        0      987
 2025 079   150        0     1.80     0.00      264     0.04     0.00      970       17        0      988
 2025 080   151        4     1.72     0.00      264     0.04     0.00      970       18        0      989
 2025 081   152       69     1.66     0.00      265     0.04     0.00      971       19        0      990
 2025 082   153     1988     1.59     0.00      266     0.04     0.00      978       20        0      998
 2025 083   154     4840     1.33     0.00      271     0.04     0.00      996       20        0     1016
 2025 084   155     6545     0.16     0.00      278     0.04     0.00     1020       20        0     1040
 2025 085   156     7224     0.45     0.00      285     0.04     0.00     1046       21        0     1067
 2025 086   157     6082     0.42     0.00      291     0.04     0.00     1069       21        0     1090
 2025 087   158     5266     0.79     0.00      296     0.05     0.00     1088       21        0     1109
 2025 088   159     4796     1.14     0.00      301     0.05     0.00     1106       22        0     1127
 2025 089   160     4386     0.99     0.00      306     0.05     0.00     1122       22        0     1144
 2025 090   161     3080     0.95     0.00      309     0.05     0.00     1133       23        0     1156
 2025 091   162     2619     0.81     0.00      311     0.05     0.00     1143       23        0     1166
 2025 092   163     2110     0.83     0.00      313     0.05     0.00     1150       23        0     1174
 2025 093   164     2506     1.22     0.00      316     0.05     0.00     1160       24        0     1184
 2025 094   165     3100     1.49     0.00      319     0.05     0.00     1171       25        0     1196
 2025 095   166     4187     1.70     0.00      323     0.05     0.00     1186       26        0     1212
 2025 096   167     5191     1.86     0.00      328     0.06     0.00     1205       26        0     1232
 2025 097   168     4113     1.95     0.00      333     0.06     0.00     1220       27        0     1248
 2025 098   169     2754     1.91     0.00      335     0.06     0.00     1231       28        0     1259
 2025 099   170     1649     1.83     0.00      337     0.06     0.00     1237       29        0     1266
 2025 100   171      753     1.74     0.00      338     0.06     0.00     1239       30        0     1269
 2025 101   172      195     1.62     0.00      338     0.07     0.00     1240       31        0     1271
 2025 102   173     1185     1.50     0.00      339     0.07     0.00     1244       31        0     1276
 2025 103   174     2455     1.38     0.00      342     0.07     0.00     1253       32        0     1285
 2025 104   175     3299     1.26     0.00      345     0.07     0.00     1266       33        0     1298
 2025 105   176     4687     1.10     0.00      350     0.07     0.00     1283       33        0     1316
 2025 106   177     5678     1.08     0.00      355     0.07     0.00     1304       34        0     1337
 2025 107   178     6589     1.05     0.00      362     0.07     0.00     1328       34        0     1362
 2025 108   179     6738     0.93     0.00      369     0.07     0.00     1352       35        0     1387
 2025 109   180     6183     0.84     0.00      375     0.07     0.00     1375       35        0     1410
 2025 110   181     5520     0.78     0.00      380     0.08     0.00     1395       35        0     1431
 2025 111   182     5420     0.68     0.00      386     0.08     0.00     1415       36        0     1451
 2025 112   183     4334     0.61     0.00      390     0.08     0.00     1431       36        0     1467
 2025 113   184     4123     0.55     0.00      394     0.08     0.00     1446       36        0     1482
 2025 114   185     6343     0.20     0.00      400     0.08     0.00     1470       36        0     1506
 2025 115   186     6898     0.09     0.00      407     0.08     0.00     1495       36        0     1531
 2025 116   187     6230     0.11     0.00      414     0.08     0.00     1518       36        0     1554
 2025 117   188     6020     0.22     0.00      420     0.08     0.00     1540       36        0     1576
 2025 118   189     6274     0.35     0.00      426     0.08     0.00     1563       37        0     1600
 2025 119   190     6376     0.38     0.00      432     0.08     0.00     1586       37        0     1623
 2025 120   191     7269     0.34     0.00      440     0.08     0.00     1613       37        0     1650
 2025 121   192     8179     0.31     0.00      448     0.08     0.00     1643       37        0     1680
 2025 122   193     9634     0.29     0.00      457     0.08     0.00     1678       37        0     1716
 2025 123   194    10240     0.26     0.00      468     0.08     0.00     1716       37        0     1753
 2025 124   195    12557     0.04     0.00      480     0.08     0.00     1762       37        0     1799
 2025 125   196    11302     0.01     0.00      491     0.08     0.00     1804       37        0     1841
 2025 126   197    10942     0.08     0.00      502     0.08     0.00     1844       37        0     1881
 2025 127   198     9066     0.15     0.00      511     0.08     0.00     1877       37        0     1914
 2025 128   199     7353     0.20     0.00      519     0.08     0.00     1904       38        0     1942
 2025 129   200     6196     0.21     0.00      525     0.08     0.00     1927       38        0     1964
 2025 130   201     5890     0.20     0.00      531     0.08     0.00     1948       38        0     1986
 2025 131   202     6000     0.18     0.00      537     0.08     0.00     1970       38        0     2008
 2025 132   203     6289     0.17     0.00      543     0.08     0.00     1993       38        0     2031
 2025 133   204     6619     0.81     0.00      550     0.08     0.00     2018       38        0     2056
 2025 134   205     6559     1.22     0.00      556     0.08     0.00     2042       39        0     2081
 2025 135   206     6662     1.46     0.00      563     0.08     0.00     2066       40        0     2106
 2025 136   207     6353     1.55     0.00      569     0.09     0.00     2090       40        0     2130
 2025 137   208     5568     1.51     0.00      575     0.09     0.00     2110       41        0     2151
 2025 138   209     4892     1.41     0.00      580     0.09     0.00     2128       42        0     2170
 2025 139   210     4461     1.31     0.00      584     0.09     0.00     2144       42        0     2187
 2025 140   211     3970     1.20     0.00      588     0.09     0.00     2159       43        0     2202
 2025 141   212     3657     1.11     0.00      592     0.09     0.00     2172       43        0     2216
 2025 142   213     4185     0.90     0.00      596     0.09     0.00     2188       44        0     2231
 2025 143   214     3629     0.83     0.00      600     0.09     0.00     2201       44        0     2245
 2025 144   215     3143     0.76     0.00      603     0.10     0.00     2212       44        0     2257
 2025 145   216     2673     0.69     0.00      606     0.10     0.00     2222       45        0     2267
 2025 146   217     3210     0.52     0.00      609     0.10     0.00     2234       45        0     2279
 2025 147   218     3321     0.46     0.00      612     0.10     0.00     2246       45        0     2292
 2025 148   219     3294     0.43     0.00      615     0.10     0.00     2258       45        0     2304
 2025 149   220     3942     0.38     0.00      619     0.10     0.00     2273       46        0     2318
 2025 150   221     4285     0.35     0.00      624     0.10     0.00     2289       46        0     2334
 2025 151   222     4408     0.32     0.00      628     0.10     0.00     2305       46        0     2351
 2025 152   223     3888     0.33     0.00      632     0.10     0.00     2319       46        0     2365
 2025 153   224     3846     0.30     0.00      636     0.10     0.00     2333       46        0     2379
 2025 154   225     6621     0.15     0.00      642     0.10     0.00     2357       46        0     2404
 2025 155   226     7246     0.23     0.00      650     0.10     0.00     2384       46        0     2430
 2025 156   227     7320     0.21     0.00      657     0.10     0.00     2411       47        0     2457
 2025 157   228     6413     0.21     0.00      663     0.10     0.00     2434       47        0     2481
 2025 158   229     6452     0.12     0.00      670     0.10     0.00     2458       47        0     2505
 2025 159   230     6675     0.16     0.00      676     0.10     0.00     2483       47        0     2529
 2025 160   231     6163     0.14     0.00      683     0.10     0.00     2505       47        0     2552
 2025 161   232     5359     0.18     0.00      688     0.10     0.00     2525       47        0     2572
 2025 162   233     3738     0.18     0.00      692     0.10     0.00     2539       47        0     2586
 2025 163   234     2605     0.20     0.00      694     0.10     0.00     2548       47        0     2595
 2025 164   235     2064     0.20     0.00      696     0.10     0.00     2556       47        0     2603
 2025 165   236     1999     0.20     0.00      698     0.10     0.00     2563       47        0     2610
 2025 166   237     2260     0.19     0.00      701     0.10     0.00     2571       47        0     2619
 2025 167   238     4609     0.14     0.00      705     0.10     0.00     2588       47        0     2636
 2025 168   239     3415     0.16     0.00      709     0.10     0.00     2601       48        0     2648
 2025 169   240     2435     0.17     0.00      711     0.10     0.00     2610       48        0     2657
 2025 170   241     2372     0.17     0.00      713     0.10     0.00     2618       48        0     2666
 2025 171   242     2265     0.16     0.00      716     0.10     0.00     2627       48        0     2675
 2025 172   243     2164     0.16     0.00      718     0.10     0.00     2635       48        0     2683
 2025 173   244     2178     0.15     0.00      720     0.10     0.00     2643       48        0     2691
 2025 174   245     2268     0.15     0.00      722     0.10     0.00     2651       48        0     2699
 2025 175   246     2315     0.14     0.00      725     0.10     0.00     2660       48        0     2708
 2025 176   247     2300     0.14     0.00      727     0.10     0.00     2668       48        0     2716
 2025 177   248     2391     0.14     0.00      729     0.10     0.00     2677       48        0     2725
 2025 178   249     2464     0.14     0.00      732     0.10     0.00     2686       48        0     2734
 2025 179   250     3625     0.12     0.00      735     0.10     0.00     2699       48        0     2747
 2025 180   251     2868     0.13     0.00      738     0.10     0.00     2710       48        0     2758
 2025 181   252     2762     0.13     0.00      741     0.10     0.00     2720       48        0     2768
 2025 182   253     2789     0.13     0.00      744     0.10     0.00     2730       48        0     2778
 2025 183   254     3914     0.12     0.00      748     0.10     0.00     2744       49        0     2793
 2025 184   255     3007     0.14     0.00      751     0.10     0.00     2755       49        0     2804
 2025 185   256     2897     0.14     0.00      754     0.10     0.00     2766       49        0     2815
 2025 186   257     2775     0.14     0.00      756     0.10     0.00     2776       49        0     2825
 2025 187   258     2591     0.14     0.00      759     0.10     0.00     2786       49        0     2834
 2025 188   259     2419     0.14     0.00      761     0.10     0.00     2795       49        0     2843
 2025 189   260     2320     0.14     0.00      764     0.10     0.00     2803       49        0     2852
 2025 190   261     2449     0.13     0.00      766     0.10     0.00     2812       49        0     2861
 2025 191   262     2177     0.13     0.00      768     0.10     0.00     2820       49        0     2869
 2025 192   263     2036     0.13     0.00      770     0.10     0.00     2828       49        0     2877
 2025 193   264     1948     0.14     0.00      772     0.11     0.00     2835       49        0     2884
 2025 194   265     1916     0.14     0.00      774     0.11     0.00     2842       49        0     2891
 2025 195   266     2039     0.14     0.00      776     0.11     0.00     2849       49        0     2898
 2025 196   267     4309     0.10     0.00      781     0.11     0.00     2865       49        0     2914
 2025 197   268     4207     0.11     0.00      785     0.11     0.00     2880       49        0     2930
 2025 198   269     6329     0.01     0.00      791     0.11     0.00     2904       49        0     2953
 2025 199   270     6729     0.06     0.00      798     0.11     0.00     2928       49        0     2978
 2025 200   271     6413     0.15     0.00      804     0.11     0.00     2952       49        0     3001
 2025 201   272     6330     0.16     0.00      811     0.11     0.00     2975       50        0     3025
 2025 202   273     6377     0.16     0.00      817     0.11     0.00     2999       50        0     3048
 2025 203   274     6293     0.01     0.00      823     0.11     0.00     3022       50        0     3071
 2025 204   275     7230     0.02     0.00      831     0.11     0.00     3048       50        0     3098
 2025 205   276     7839     0.12     0.00      838     0.11     0.00     3077       50        0     3127
 2025 206   277     7489     0.06     0.00      846     0.11     0.00     3104       50        0     3154
 2025 207   278     6860     0.03     0.00      853     0.11     0.00     3130       50        0     3179
 2025 208   279     6665     0.02     0.00      859     0.11     0.00     3154       50        0     3204
 2025 209   280     6797     0.03     0.00      866     0.11     0.00     3179       50        0     3229
 2025 210   281     6501     0.02     0.00      873     0.11     0.00     3203       50        0     3253
 2025 211   282     6680     0.09     0.00      879     0.11     0.00     3227       50        0     3277
 2025 212   283     6432     0.11     0.00      886     0.11     0.00     3251       50        0     3301
 2025 213   284     6333     0.17     0.00      892     0.11     0.00     3274       50        0     3324
 2025 214   285     5987     0.04     0.00      898     0.11     0.00     3296       50        0     3346
 2025 215   286     5756     0.03     0.00      904     0.11     0.00     3317       50        0     3367
 2025 216   287     5797     0.11     0.00      910     0.11     0.00     3339       50        0     3389
 2025 217   288     5902     0.11     0.00      916     0.11     0.00     3360       50        0     3410
 2025 218   289     6423     0.29     0.00      922     0.11     0.00     3384       50        0     3434
 2025 219   290     6320     0.46     0.00      928     0.11     0.00     3407       50        0     3457
 2025 220   291     6220     0.47     0.00      935     0.11     0.00     3430       51        0     3481
 2025 221   292     6684     0.49     0.00      941     0.11     0.00     3454       51        0     3505

*DSSAT Cropping System Model Ver. 4.8.2.000 -release  JAN 23, 2026 17:32:35

*RUN   3        : 180 kg[N]/ha - broadcast  WHAPS048 HWOC2501    7
 MODEL          : WHAPS048 - Wheat
 EXPERIMENT     : HWOC2501 WH
 DATA PATH      : C:/DSSAT48/Wheat/
 TREATMENT  7   : 180 kg[N]/ha - broadcast  WHAPS048
  
!               |------ Daily (g/ha) -----|--- Cumulative (kg/ha) ---|---- Cum CO2-equiv kg[CO2eq]/ha ---|
!                    CO2      N2O      CH4      CO2      N2O      CH4      CO2      N2O      CH4    Total
!                g[C]/ha  g[N]/ha  g[C]/ha kg[C]/ha kg[N]/ha kg[C]/ha    CO2eq    CO2eq    CO2eq    CO2eq
@YEAR DOY   DAS   CO2GED   N2OGED   CH4GED    CO2EC    N2OEC    CH4EC    CCEQC    NCEQC    MCEQC    TCEQC
 2024 296     1    20683     0.00     0.00       21     0.00     0.00       76        0        0       76
 2024 297     2    20296     0.01     0.00       41     0.00     0.00      150        0        0      150
 2024 298     3    18220     0.02     0.00       59     0.00     0.00      217        0        0      217
 2024 299     4    16700     0.04     0.00       76     0.00     0.00      279        0        0      279
 2024 300     5    15700     0.06     0.00       92     0.00     0.00      336        0        0      336
 2024 301     6    14370     0.08     0.00      106     0.00     0.00      389        0        0      389
 2024 302     7    13427     0.09     0.00      119     0.00     0.00      438        0        0      438
 2024 303     8    14288     0.11     0.00      134     0.00     0.00      491        0        0      491
 2024 304     9    14893     0.13     0.00      149     0.00     0.00      545        0        0      546
 2024 305    10    14494     0.14     0.00      163     0.00     0.00      598        0        0      599
 2024 306    11    13922     0.15     0.00      177     0.00     0.00      650        0        0      650
 2024 307    12    12005     0.16     0.00      189     0.00     0.00      694        0        0      694
 2024 308    13     9997     0.17     0.00      199     0.00     0.00      730        1        0      731
 2024 309    14     7484     0.18     0.00      206     0.00     0.00      758        1        0      758
 2024 310    15     5406     0.18     0.00      212     0.00     0.00      778        1        0      778
 2024 311    16     3118     0.18     0.00      215     0.00     0.00      789        1        0      790
 2024 312    17     3080     0.18     0.00      218     0.00     0.00      800        1        0      801
 2024 313    18     2480     0.18     0.00      221     0.00     0.00      809        1        0      810
 2024 314    19     1753     0.18     0.00      222     0.00     0.00      816        1        0      817
 2024 315    20     1108     0.18     0.00      223     0.00     0.00      820        1        0      821
 2024 316    21     1219     0.18     0.00      225     0.00     0.00      824        1        0      826
 2024 317    22      616     0.11     0.00      225     0.00     0.00      827        1        0      828
 2024 318    23      376     0.11     0.00      226     0.00     0.00      828        1        0      829
 2024 319    24      206     0.11     0.00      226     0.00     0.00      829        1        0      830
 2024 320    25      181     0.12     0.00      226     0.00     0.00      829        1        0      831
 2024 321    26      177     0.14     0.00      226     0.00     0.00      830        2        0      832
 2024 322    27      174     0.16     0.00      226     0.00     0.00      831        2        0      832
 2024 323    28      184     0.11     0.00      227     0.00     0.00      831        2        0      833
 2024 324    29      305     0.01     0.00      227     0.00     0.00      833        2        0      834
 2024 325    30      544     0.01     0.00      227     0.00     0.00      835        2        0      836
 2024 326    31      418     0.01     0.00      228     0.00     0.00      836        2        0      838
 2024 327    32      278     0.03     0.00      228     0.00     0.00      837        2        0      839
 2024 328    33      137     0.05     0.00      228     0.00     0.00      838        2        0      839
 2024 329    34       83     0.09     0.00      228     0.00     0.00      838        2        0      840
 2024 330    35       69     0.13     0.00      228     0.00     0.00      838        2        0      840
 2024 331    36      146     0.13     0.00      229     0.00     0.00      839        2        0      841
 2024 332    37      388     0.05     0.00      229     0.00     0.00      840        2        0      842
 2024 333    38     1100     0.08     0.00      230     0.00     0.00      844        2        0      846
 2024 334    39     2237     0.03     0.00      232     0.00     0.00      852        2        0      854
 2024 335    40      919     0.07     0.00      233     0.00     0.00      856        2        0      858
 2024 336    41      438     0.12     0.00      234     0.00     0.00      857        2        0      859
 2024 337    42      138     0.14     0.00      234     0.00     0.00      858        2        0      860
 2024 338    43       59     0.04     0.00      234     0.00     0.00      858        2        0      860
 2024 339    44       47     0.03     0.00      234     0.00     0.00      858        2        0      860
 2024 340    45       37     0.07     0.00      234     0.00     0.00      858        2        0      861
 2024 341    46       30     0.10     0.00      234     0.00     0.00      859        2        0      861
 2024 342    47       89     0.01     0.00      234     0.00     0.00      859        2        0      861
 2024 343    48      118     0.02     0.00      234     0.00     0.00      859        2        0      861
 2024 344    49       85     0.04     0.00      234     0.00     0.00      860        2        0      862
 2024 345    50       94     0.07     0.00      234     0.00     0.00      860        2        0      862
 2024 346    51       97     0.10     0.00      234     0.00     0.00      860        2        0      863
 2024 347    52       45     0.12     0.00      234     0.01     0.00      860        2        0      863
 2024 348    53       28     0.14     0.00      234     0.01     0.00      861        2        0      863
 2024 349    54       15     0.15     0.00      235     0.01     0.00      861        2        0      863
 2024 350    55       11     0.15     0.00      235     0.01     0.00      861        3        0      863
 2024 351    56       12     0.13     0.00      235     0.01     0.00      861        3        0      863
 2024 352    57       28     0.12     0.00      235     0.01     0.00      861        3        0      863
 2024 353    58       67     0.13     0.00      235     0.01     0.00      861        3        0      864
 2024 354    59      158     0.14     0.00      235     0.01     0.00      862        3        0      864
 2024 355    60      408     0.05     0.00      235     0.01     0.00      863        3        0      866
 2024 356    61      377     0.07     0.00      236     0.01     0.00      865        3        0      867
 2024 357    62      225     0.06     0.00      236     0.01     0.00      865        3        0      868
 2024 358    63      155     0.01     0.00      236     0.01     0.00      866        3        0      869
 2024 359    64       73     0.03     0.00      236     0.01     0.00      866        3        0      869
 2024 360    65       28     0.06     0.00      236     0.01     0.00      866        3        0      869
 2024 361    66       27     0.10     0.00      236     0.01     0.00      866        3        0      869
 2024 362    67       16     0.12     0.00      236     0.01     0.00      866        3        0      869
 2024 363    68        5     0.13     0.00      236     0.01     0.00      866        3        0      870
 2024 364    69        3     0.13     0.00      236     0.01     0.00      866        3        0      870
 2024 365    70        0     0.13     0.00      236     0.01     0.00      866        3        0      870
 2024 366    71        0     0.12     0.00      236     0.01     0.00      866        3        0      870
 2025 001    72        0     0.12     0.00      236     0.01     0.00      866        3        0      870
 2025 002    73        0     0.12     0.00      236     0.01     0.00      866        3        0      870
 2025 003    74        0     0.00     0.00      236     0.01     0.00      866        3        0      870
 2025 004    75        0     0.03     0.00      236     0.01     0.00      866        3        0      870
 2025 005    76        0     0.07     0.00      236     0.01     0.00      866        3        0      870
 2025 006    77        0     0.00     0.00      236     0.01     0.00      866        3        0      870
 2025 007    78        3     0.02     0.00      236     0.01     0.00      866        3        0      870
 2025 008    79        4     0.04     0.00      236     0.01     0.00      866        3        0      870
 2025 009    80       13     0.00     0.00      236     0.01     0.00      867        3        0      870
 2025 010    81       57     0.00     0.00      236     0.01     0.00      867        3        0      870
 2025 011    82       39     0.03     0.00      236     0.01     0.00      867        3        0      870
 2025 012    83       10     0.06     0.00      236     0.01     0.00      867        4        0      870
 2025 013    84        2     0.09     0.00      236     0.01     0.00      867        4        0      870
 2025 014    85        0     0.10     0.00      236     0.01     0.00      867        4        0      871
 2025 015    86        0     0.11     0.00      236     0.01     0.00      867        4        0      871
 2025 016    87        0     0.09     0.00      236     0.01     0.00      867        4        0      871
 2025 017    88        0     0.10     0.00      236     0.01     0.00      867        4        0      871
 2025 018    89        0     0.10     0.00      236     0.01     0.00      867        4        0      871
 2025 019    90        0     0.11     0.00      236     0.01     0.00      867        4        0      871
 2025 020    91        0     0.11     0.00      236     0.01     0.00      867        4        0      871
 2025 021    92        0     0.11     0.00      236     0.01     0.00      867        4        0      871
 2025 022    93        0     0.10     0.00      236     0.01     0.00      867        4        0      871
 2025 023    94        0     0.10     0.00      236     0.01     0.00      867        4        0      871
 2025 024    95        0     0.05     0.00      236     0.01     0.00      867        4        0      871
 2025 025    96        2     0.07     0.00      236     0.01     0.00      867        4        0      871
 2025 026    97       12     0.09     0.00      236     0.01     0.00      867        4        0      871
 2025 027    98       30     0.09     0.00      236     0.01     0.00      867        4        0      871
 2025 028    99      116     0.02     0.00      236     0.01     0.00      868        4        0      872
 2025 029   100      175     0.00     0.00      237     0.01     0.00      868        4        0      872
 2025 030   101      191     0.02     0.00      237     0.01     0.00      869        4        0      873
 2025 031   102      103     0.04     0.00      237     0.01     0.00      869        4        0      873
 2025 032   103       55     0.05     0.00      237     0.01     0.00      869        4        0      874
 2025 033   104       11     0.08     0.00      237     0.01     0.00      869        4        0      874
 2025 034   105        3     0.09     0.00      237     0.01     0.00      870        4        0      874
 2025 035   106        0     0.09     0.00      237     0.01     0.00      870        4        0      874
 2025 036   107        0     0.09     0.00      237     0.01     0.00      870        4        0      874
 2025 037   108        0     0.09     0.00      237     0.01     0.00      870        4        0      874
 2025 038   109        0     0.09     0.00      237     0.01     0.00      870        4        0      874
 2025 039   110        0     0.09     0.00      237     0.01     0.00      870        5        0      874
 2025 040   111        0     0.09     0.00      237     0.01     0.00      870        5        0      874
 2025 041   112        0     0.09     0.00      237     0.01     0.00      870        5        0      874
 2025 042   113        0     0.08     0.00      237     0.01     0.00      870        5        0      874
 2025 043   114        0     0.01     0.00      237     0.01     0.00      870        5        0      874
 2025 044   115        3     0.00     0.00      237     0.01     0.00      870        5        0      874
 2025 045   116        2     0.00     0.00      237     0.01     0.00      870        5        0      874
 2025 046   117        0     0.02     0.00      237     0.01     0.00      870        5        0      874
 2025 047   118        0     0.05     0.00      237     0.01     0.00      870        5        0      874
 2025 048   119        0     0.07     0.00      237     0.01     0.00      870        5        0      874
 2025 049   120        0     0.08     0.00      237     0.01     0.00      870        5        0      874
 2025 050   121        0     0.08     0.00      237     0.01     0.00      870        5        0      874
 2025 051   122        0     0.08     0.00      237     0.01     0.00      870        5        0      874
 2025 052   123        0     0.08     0.00      237     0.01     0.00      870        5        0      874
 2025 053   124        0     0.08     0.00      237     0.01     0.00      870        5        0      874
 2025 054   125        0     0.08     0.00      237     0.01     0.00      870        5        0      874
 2025 055   126        5     0.08     0.00      237     0.01     0.00      870        5        0      875
 2025 056   127      122     0.08     0.00      237     0.01     0.00      870        5        0      875
 2025 057   128     1465     0.07     0.00      239     0.01     0.00      875        5        0      880
 2025 058   129      364     0.06     0.00      239     0.01     0.00      877        5        0      882
 2025 059   130      174     0.05     0.00      239     0.01     0.00      877        5        0      882
 2025 060   131       34     0.04     0.00      239     0.01     0.00      877        5        0      883
 2025 061   132        7     0.05     0.00      239     0.01     0.00      877        5        0      883
 2025 062   133        0     0.07     0.00      239     0.01     0.00      877        5        0      883
 2025 063   134        0     0.07     0.00      239     0.01     0.00      877        5        0      883
 2025 064   135        1     0.07     0.00      239     0.01     0.00      877        5        0      883
 2025 065   136        8     0.07     0.00      239     0.01     0.00      878        5        0      883
 2025 066   137       65     0.79     0.00      239     0.01     0.00      878        6        0      883
 2025 067   138      837     1.44     0.00      240     0.01     0.00      881        6        0      887
 2025 068   139     2741     1.98     0.00      243     0.02     0.00      891        7        0      898
 2025 069   140     4087     2.39     0.00      247     0.02     0.00      906        8        0      914
 2025 070   141     5056     2.67     0.00      252     0.02     0.00      924       10        0      934
 2025 071   142     4917     2.93     0.00      257     0.02     0.00      942       11        0      953
 2025 072   143     4186     2.95     0.00      261     0.03     0.00      958       12        0      970
 2025 073   144     2450     2.64     0.00      263     0.03     0.00      967       14        0      980
 2025 074   145      877     2.62     0.00      264     0.03     0.00      970       15        0      985
 2025 075   146       79     2.84     0.00      264     0.03     0.00      970       16        0      987
 2025 076   147       19     2.80     0.00      264     0.04     0.00      970       17        0      988
 2025 077   148        3     2.65     0.00      264     0.04     0.00      970       19        0      989
 2025 078   149        0     2.51     0.00      264     0.04     0.00      970       20        0      990
 2025 079   150        0     2.39     0.00      264     0.04     0.00      970       21        0      991
 2025 080   151        4     2.28     0.00      264     0.05     0.00      970       22        0      993
 2025 081   152       69     2.21     0.00      264     0.05     0.00      971       23        0      994
 2025 082   153     1989     2.11     0.00      266     0.05     0.00      978       24        0     1002
 2025 083   154     4839     1.80     0.00      271     0.05     0.00      996       25        0     1021
 2025 084   155     6541     0.21     0.00      278     0.05     0.00     1020       25        0     1045
 2025 085   156     7231     0.62     0.00      285     0.05     0.00     1046       25        0     1072
 2025 086   157     6082     0.58     0.00      291     0.05     0.00     1069       26        0     1094
 2025 087   158     5266     1.10     0.00      296     0.06     0.00     1088       26        0     1114
 2025 088   159     4796     1.63     0.00      301     0.06     0.00     1106       27        0     1132
 2025 089   160     4386     1.47     0.00      306     0.06     0.00     1122       28        0     1149
 2025 090   161     3080     1.44     0.00      309     0.06     0.00     1133       28        0     1161
 2025 091   162     2619     1.29     0.00      311     0.06     0.00     1143       29        0     1171
 2025 092   163     2109     1.35     0.00      313     0.06     0.00     1150       29        0     1180
 2025 093   164     2506     1.82     0.00      316     0.06     0.00     1160       30        0     1190
 2025 094   165     3099     2.13     0.00      319     0.07     0.00     1171       31        0     1202
 2025 095   166     4183     2.38     0.00      323     0.07     0.00     1186       32        0     1219
 2025 096   167     5181     2.59     0.00      328     0.07     0.00     1205       34        0     1239
 2025 097   168     4095     2.71     0.00      333     0.07     0.00     1220       35        0     1255
 2025 098   169     2739     2.67     0.00      335     0.08     0.00     1230       36        0     1267
 2025 099   170     1639     2.55     0.00      337     0.08     0.00     1236       37        0     1274
 2025 100   171      747     2.44     0.00      338     0.08     0.00     1239       39        0     1278
 2025 101   172      194     2.27     0.00      338     0.08     0.00     1240       40        0     1279
 2025 102   173     1169     2.11     0.00      339     0.09     0.00     1244       41        0     1285
 2025 103   174     2410     1.95     0.00      341     0.09     0.00     1253       41        0     1294
 2025 104   175     3223     1.77     0.00      345     0.09     0.00     1265       42        0     1307
 2025 105   176     4582     1.56     0.00      349     0.09     0.00     1282       43        0     1325
 2025 106   177     5536     1.53     0.00      355     0.09     0.00     1302       44        0     1346
 2025 107   178     6402     1.49     0.00      361     0.09     0.00     1325       44        0     1370
 2025 108   179     6525     1.34     0.00      368     0.10     0.00     1349       45        0     1394
 2025 109   180     5987     1.23     0.00      374     0.10     0.00     1371       46        0     1417
 2025 110   181     5339     1.15     0.00      379     0.10     0.00     1391       46        0     1437
 2025 111   182     5228     1.01     0.00      384     0.10     0.00     1410       47        0     1457
 2025 112   183     4150     0.92     0.00      388     0.10     0.00     1425       47        0     1472
 2025 113   184     3926     0.84     0.00      392     0.10     0.00     1440       47        0     1487
 2025 114   185     6200     0.34     0.00      398     0.10     0.00     1462       48        0     1510
 2025 115   186     6719     0.17     0.00      405     0.10     0.00     1487       48        0     1535
 2025 116   187     6159     0.19     0.00      411     0.10     0.00     1510       48        0     1558
 2025 117   188     5960     0.36     0.00      417     0.10     0.00     1532       48        0     1580
 2025 118   189     6124     0.55     0.00      423     0.10     0.00     1554       48        0     1602
 2025 119   190     5930     0.53     0.00      429     0.10     0.00     1576       48        0     1624
 2025 120   191     6505     0.48     0.00      436     0.10     0.00     1600       49        0     1648
 2025 121   192     6992     0.44     0.00      443     0.10     0.00     1625       49        0     1674
 2025 122   193     7927     0.40     0.00      451     0.10     0.00     1654       49        0     1704
 2025 123   194     8163     0.38     0.00      459     0.11     0.00     1684       49        0     1734
 2025 124   195    11150     0.09     0.00      470     0.11     0.00     1725       49        0     1775
 2025 125   196    11056     0.02     0.00      481     0.11     0.00     1766       49        0     1815
 2025 126   197    10521     0.12     0.00      492     0.11     0.00     1805       49        0     1854
 2025 127   198     8662     0.21     0.00      500     0.11     0.00     1836       49        0     1886
 2025 128   199     6924     0.26     0.00      507     0.11     0.00     1862       50        0     1911
 2025 129   200     5759     0.27     0.00      513     0.11     0.00     1883       50        0     1933
 2025 130   201     5455     0.24     0.00      519     0.11     0.00     1903       50        0     1953
 2025 131   202     5497     0.22     0.00      524     0.11     0.00     1923       50        0     1973
 2025 132   203     5662     0.21     0.00      530     0.11     0.00     1944       50        0     1994
 2025 133   204     5808     0.99     0.00      535     0.11     0.00     1965       50        0     2016
 2025 134   205     5646     1.51     0.00      541     0.11     0.00     1986       51        0     2037
 2025 135   206     5620     1.81     0.00      547     0.11     0.00     2007       52        0     2059
 2025 136   207     5209     1.95     0.00      552     0.11     0.00     2026       53        0     2079
 2025 137   208     4536     1.92     0.00      556     0.12     0.00     2042       54        0     2096
 2025 138   209     3950     1.83     0.00      560     0.12     0.00     2057       55        0     2112
 2025 139   210     3561     1.72     0.00      564     0.12     0.00     2070       56        0     2125
 2025 140   211     3142     1.59     0.00      567     0.12     0.00     2081       56        0     2138
 2025 141   212     2831     1.48     0.00      570     0.12     0.00     2092       57        0     2149
 2025 142   213     3363     1.21     0.00      573     0.12     0.00     2104       58        0     2162
 2025 143   214     2849     1.15     0.00      576     0.12     0.00     2115       58        0     2173
 2025 144   215     2447     1.04     0.00      579     0.13     0.00     2124       59        0     2182
 2025 145   216     2043     0.95     0.00      581     0.13     0.00     2131       59        0     2190
 2025 146   217     2663     0.70     0.00      583     0.13     0.00     2141       59        0     2200
 2025 147   218     2777     0.62     0.00      586     0.13     0.00     2151       60        0     2211
 2025 148   219     2521     0.58     0.00      589     0.13     0.00     2160       60        0     2220
 2025 149   220     3039     0.51     0.00      592     0.13     0.00     2171       60        0     2232
 2025 150   221     3277     0.46     0.00      595     0.13     0.00     2183       60        0     2244
 2025 151   222     3203     0.44     0.00      598     0.13     0.00     2195       61        0     2256
 2025 152   223     2702     0.45     0.00      601     0.13     0.00     2205       61        0     2266
 2025 153   224     3509     0.37     0.00      604     0.13     0.00     2218       61        0     2279
 2025 154   225     6521     0.17     0.00      611     0.13     0.00     2242       61        0     2303
 2025 155   226     7196     0.28     0.00      618     0.13     0.00     2268       61        0     2329
 2025 156   227     7179     0.26     0.00      625     0.13     0.00     2295       61        0     2356
 2025 157   228     6085     0.24     0.00      631     0.13     0.00     2317       61        0     2378
 2025 158   229     6333     0.16     0.00      638     0.13     0.00     2340       61        0     2402
 2025 159   230     6518     0.20     0.00      644     0.13     0.00     2364       62        0     2426
 2025 160   231     5978     0.18     0.00      650     0.13     0.00     2386       62        0     2448
 2025 161   232     4960     0.19     0.00      655     0.13     0.00     2404       62        0     2466
 2025 162   233     3150     0.20     0.00      658     0.13     0.00     2416       62        0     2478
 2025 163   234     2209     0.21     0.00      660     0.13     0.00     2424       62        0     2486
 2025 164   235     1821     0.21     0.00      662     0.13     0.00     2431       62        0     2493
 2025 165   236     1909     0.20     0.00      664     0.13     0.00     2438       62        0     2500
 2025 166   237     2168     0.19     0.00      666     0.13     0.00     2446       62        0     2508
 2025 167   238     4648     0.14     0.00      671     0.13     0.00     2463       62        0     2525
 2025 168   239     3481     0.15     0.00      675     0.13     0.00     2475       62        0     2538
 2025 169   240     2454     0.17     0.00      677     0.13     0.00     2484       62        0     2547
 2025 170   241     2377     0.16     0.00      679     0.13     0.00     2493       62        0     2556
 2025 171   242     2258     0.16     0.00      682     0.13     0.00     2501       63        0     2564
 2025 172   243     2147     0.15     0.00      684     0.13     0.00     2509       63        0     2572
 2025 173   244     2151     0.15     0.00      686     0.13     0.00     2517       63        0     2580
 2025 174   245     2219     0.14     0.00      688     0.13     0.00     2525       63        0     2588
 2025 175   246     2229     0.14     0.00      690     0.13     0.00     2534       63        0     2596
 2025 176   247     2183     0.14     0.00      693     0.13     0.00     2542       63        0     2604
 2025 177   248     2268     0.14     0.00      695     0.13     0.00     2550       63        0     2613
 2025 178   249     2337     0.13     0.00      697     0.13     0.00     2558       63        0     2622
 2025 179   250     3605     0.11     0.00      701     0.13     0.00     2572       63        0     2635
 2025 180   251     2833     0.13     0.00      704     0.13     0.00     2582       63        0     2645
 2025 181   252     2636     0.13     0.00      706     0.13     0.00     2592       63        0     2655
 2025 182   253     2656     0.13     0.00      709     0.14     0.00     2602       63        0     2665
 2025 183   254     3820     0.12     0.00      713     0.14     0.00     2616       63        0     2679
 2025 184   255     2870     0.14     0.00      716     0.14     0.00     2626       63        0     2689
 2025 185   256     2761     0.14     0.00      718     0.14     0.00     2636       63        0     2700
 2025 186   257     2640     0.14     0.00      721     0.14     0.00     2646       64        0     2709
 2025 187   258     2462     0.13     0.00      723     0.14     0.00     2655       64        0     2719
 2025 188   259     2296     0.13     0.00      726     0.14     0.00     2663       64        0     2727
 2025 189   260     2210     0.13     0.00      728     0.14     0.00     2671       64        0     2735
 2025 190   261     2358     0.13     0.00      730     0.14     0.00     2680       64        0     2744
 2025 191   262     2092     0.13     0.00      732     0.14     0.00     2688       64        0     2752
 2025 192   263     1953     0.13     0.00      734     0.14     0.00     2695       64        0     2759
 2025 193   264     1865     0.13     0.00      736     0.14     0.00     2702       64        0     2766
 2025 194   265     1831     0.13     0.00      738     0.14     0.00     2709       64        0     2773
 2025 195   266     1945     0.13     0.00      740     0.14     0.00     2716       64        0     2780
 2025 196   267     4295     0.10     0.00      744     0.14     0.00     2731       64        0     2796
 2025 197   268     4182     0.11     0.00      748     0.14     0.00     2747       64        0     2811
 2025 198   269     6516     0.01     0.00      755     0.14     0.00     2771       64        0     2835
 2025 199   270     6960     0.06     0.00      762     0.14     0.00     2796       64        0     2860
 2025 200   271     6625     0.15     0.00      769     0.14     0.00     2821       64        0     2885
 2025 201   272     6519     0.15     0.00      775     0.14     0.00     2845       64        0     2909
 2025 202   273     6565     0.16     0.00      782     0.14     0.00     2869       64        0     2933
 2025 203   274     6564     0.01     0.00      788     0.14     0.00     2893       64        0     2957
 2025 204   275     7626     0.02     0.00      796     0.14     0.00     2921       64        0     2985
 2025 205   276     8305     0.12     0.00      804     0.14     0.00     2951       64        0     3016
 2025 206   277     7961     0.06     0.00      812     0.14     0.00     2980       65        0     3045
 2025 207   278     7284     0.03     0.00      819     0.14     0.00     3007       65        0     3072
 2025 208   279     7048     0.02     0.00      826     0.14     0.00     3033       65        0     3097
 2025 209   280     7164     0.03     0.00      834     0.14     0.00     3059       65        0     3124
 2025 210   281     6826     0.02     0.00      840     0.14     0.00     3084       65        0     3149
 2025 211   282     7006     0.09     0.00      847     0.14     0.00     3110       65        0     3175
 2025 212   283     6742     0.11     0.00      854     0.14     0.00     3135       65        0     3199
 2025 213   284     6629     0.18     0.00      861     0.14     0.00     3159       65        0     3224
 2025 214   285     6258     0.04     0.00      867     0.14     0.00     3182       65        0     3247
 2025 215   286     6004     0.03     0.00      873     0.14     0.00     3204       65        0     3269
 2025 216   287     6039     0.12     0.00      879     0.14     0.00     3226       65        0     3291
 2025 217   288     6142     0.11     0.00      885     0.14     0.00     3249       65        0     3314
 2025 218   289     6689     0.30     0.00      892     0.14     0.00     3273       65        0     3338
 2025 219   290     6579     0.48     0.00      899     0.14     0.00     3298       65        0     3363
 2025 220   291     6463     0.49     0.00      905     0.14     0.00     3321       65        0     3387
 2025 221   292     6939     0.51     0.00      912     0.14     0.00     3347       66        0     3412
