*N2O emissions output file

*DSSAT Cropping System Model Ver. 4.8.2.000 -release  JAN 23, 2026 17:32:35

*RUN   1        : No N                      WHAPS048 HWOC2501    1
 MODEL          : WHAPS048 - Wheat
 EXPERIMENT     : HWOC2501 WH
 DATA PATH      : C:/DSSAT48/Wheat/
 TREATMENT  1   : No N                      WHAPS048
  
!              |------------------------------ Cumulative -----------------------------|------------------------------ Daily ----------------------------------|
!               N2Oemit  N2emit  NOemit   Denit  Nitrif   N2O-denit+nit      N2      NO N2Oemit  N2emit  NOemit   Denit  Nitrif   N2O-denit+nit      N2      NO   Denitrification (g[N]/ha) by soil depth (cm):                                   Nitrification (g[N]/ha) by soil depth (cm):                                     N2O flux (g[N]/ha) by soil depth (cm):                                          N2 flux (g[N]/ha) by soil depth (cm):                                           NO flux (g[N]/ha) by soil depth (cm):
!                 kg/ha   kg/ha   kg/ha   kg/ha   kg/ha   kg/ha   kg/ha   kg/ha   kg/ha    g/ha    g/ha    g/ha    g/ha    g/ha    g/ha    g/ha    g/ha    g/ha     0-5    5-10   10-20   20-30   30-40   40-50   50-60   60-70   70-90  90-210     0-5    5-10   10-20   20-30   30-40   40-50   50-60   60-70   70-90  90-210     0-5    5-10   10-20   20-30   30-40   40-50   50-60   60-70   70-90  90-210     0-5    5-10   10-20   20-30   30-40   40-50   50-60   60-70   70-90  90-210     0-5    5-10   10-20   20-30   30-40   40-50   50-60   60-70   70-90  90-210
@YEAR DOY   DAS   N2OEC    N2EC    NOEC    NDNC    NITC   N2ODC   N2ONC   N2FLC   NOFLC  N2OGED   N2GED   NOGED    NDND   NITRD   N2ODD   N2OND   N2FLD   NOFLD   NDN1D   NDN2D   NDN3D   NDN4D   NDN5D   NDN6D   NDN7D   NDN8D   NDN9D   NDN10   NIT1D   NIT2D   NIT3D   NIT4D   NIT5D   NIT6D   NIT7D   NIT8D   NIT9D   NIT10   N2O1D   N2O2D   N2O3D   N2O4D   N2O5D   N2O6D   N2O7D   N2O8D   N2O9D   N2O10   N2F1D   N2F2D   N2F3D   N2F4D   N2F5D   N2F6D   N2F7D   N2F8D   N2F9D   N2F10   NOF1D   NOF2D   NOF3D   NOF4D   NOF5D   NOF6D   NOF7D   NOF8D   NOF9D   NOF10
 2024 296     1    0.00    0.00    0.00    0.00     0.9   0.000   0.001   0.000   0.001     0.0     0.0     0.0     0.0     892    0.00    0.89    0.00    1.04     0.0     0.0     0.0     0.0     0.0     0.0     0.0     0.0     0.0     0.0     21.     21.     41.     42.     42.     42.     42.     42.     85.     86.     0.0     0.0     0.0     0.0     0.0     0.0     0.0     0.0     0.1     0.1     0.0     0.0     0.0     0.0     0.0     0.0     0.0     0.0     0.0     0.0     0.0     0.0     0.1     0.0     0.0     0.0     0.0     0.1     0.1     0.1
 2024 297     2    0.00    0.00    0.00    0.00     1.8   0.000   0.002   0.000   0.002     0.0     0.0     0.0     0.0     863    0.00    0.86    0.00    0.80     0.0     0.0     0.0     0.0     0.0     0.0     0.0     0.0     0.0     0.0     57.     57.     52.     37.     37.     37.     38.     37.     74.     74.     0.1     0.1     0.1     0.0     0.0     0.0     0.0     0.0     0.1     0.1     0.0     0.0     0.0     0.0     0.0     0.0     0.0     0.0     0.0     0.0     0.1     0.1     0.1     0.0     0.0     0.0     0.0     0.0     0.1     0.1
 2024 298     3    0.00    0.00    0.00    0.00     2.6   0.000   0.003   0.000   0.002     0.0     0.0     0.0     0.0     802    0.00    0.80    0.00    0.60     0.0     0.0     0.0     0.0     0.0     0.0     0.0     0.0     0.0     0.0     82.     82.     58.     32.     32.     32.     33.     32.     63.     62.     0.1     0.1     0.1     0.0     0.0     0.0     0.0     0.0     0.1     0.1     0.0     0.0     0.0     0.0     0.0     0.0     0.0     0.0     0.0     0.0     0.2     0.1     0.1     0.0     0.0     0.0     0.0     0.0     0.0     0.0
 2024 299     4    0.00    0.00    0.00    0.00     3.3   0.000   0.003   0.000   0.003     0.0     0.0     0.1     0.0     748    0.00    0.75    0.00    0.54     0.0     0.0     0.0     0.0     0.0     0.0     0.0     0.0     0.0     0.0     99.     98.     62.     28.     28.     28.     29.     28.     50.     53.     0.1     0.1     0.1     0.0     0.0     0.0     0.0     0.0     0.1     0.1     0.0     0.0     0.0     0.0     0.0     0.0     0.0     0.0     0.0     0.0     0.2     0.1     0.1     0.0     0.0     0.0     0.0     0.0     0.0     0.0
 2024 300     5    0.00    0.00    0.00    0.00     4.0   0.000   0.004   0.004   0.004     0.1     0.0     0.1     3.9     709    0.19    0.71    3.73    0.71     0.0     0.1     0.2     0.3     0.6     0.8     0.9     1.1     0.0     0.0    110.    110.     65.     26.     25.     26.     26.     25.     44.     47.     0.1     0.1     0.1     0.0     0.1     0.1     0.1     0.1     0.0     0.0     0.0     0.1     0.2     0.3     0.5     0.7     0.9     1.0     0.0     0.0     0.2     0.1     0.1     0.0     0.0     0.0     0.0     0.0     0.0     0.0
 2024 301     6    0.00    0.00    0.00    0.01     4.7   0.000   0.005   0.006   0.004     0.1     0.0     0.1     2.8     667    0.13    0.67    2.62    0.69     0.0     0.0     0.0     0.2     0.3     0.5     0.7     0.9     0.0     0.0    116.    116.     66.     23.     23.     23.     24.     23.     40.     41.     0.1     0.1     0.1     0.0     0.0     0.0     0.1     0.1     0.0     0.0     0.0     0.0     0.0     0.2     0.3     0.5     0.7     0.9     0.0     0.0     0.2     0.1     0.1     0.0     0.0     0.0     0.0     0.0     0.0     0.0
 2024 302     7    0.00    0.00    0.00    0.01     5.3   0.000   0.005   0.008   0.005     0.1     0.0     0.2     1.9     634    0.09    0.63    1.79    0.67     0.0     0.0     0.0     0.1     0.2     0.4     0.5     0.7     0.0     0.0    120.    120.     66.     22.     21.     21.     22.     21.     37.     37.     0.1     0.1     0.1     0.0     0.0     0.0     0.0     0.1     0.0     0.0     0.0     0.0     0.0     0.1     0.2     0.3     0.5     0.7     0.0     0.0     0.2     0.1     0.1     0.0     0.0     0.0     0.0     0.0     0.0     0.0
 2024 303     8    0.00    0.00    0.00    0.01     5.9   0.001   0.006   0.010   0.006     0.1     0.0     0.2     1.9     632    0.10    0.63    1.84    0.69     0.0     0.0     0.0     0.0     0.1     0.2     0.4     0.6     0.8     0.0    124.    130.     70.     21.     21.     21.     22.     20.     36.     35.     0.1     0.1     0.1     0.0     0.0     0.0     0.0     0.0     0.1     0.0     0.0     0.0     0.0     0.0     0.1     0.2     0.3     0.5     0.7     0.0     0.2     0.1     0.1     0.0     0.0     0.0     0.0     0.0     0.0     0.0
 2024 304     9    0.00    0.00    0.00    0.01     6.6   0.001   0.007   0.011   0.006     0.1     0.0     0.2     1.2     623    0.06    0.62    1.13    0.68     0.0     0.0     0.0     0.0     0.0     0.1     0.2     0.4     0.6     0.0    123.    138.     75.     22.     21.     21.     21.     20.     36.     29.     0.1     0.1     0.1     0.0     0.0     0.0     0.0     0.0     0.1     0.0     0.0     0.0     0.0     0.0     0.0     0.1     0.2     0.4     0.5     0.0     0.2     0.2     0.1     0.0     0.0     0.0     0.0     0.0     0.0     0.0
 2024 305    10    0.00    0.00    0.00    0.01     7.2   0.001   0.007   0.012   0.007     0.1     0.0     0.2     0.7     593    0.04    0.59    0.68    0.64     0.0     0.0     0.0     0.0     0.0     0.0     0.1     0.2     0.4     0.0    112.    139.     76.     21.     20.     20.     21.     19.     34.     27.     0.1     0.1     0.1     0.0     0.0     0.0     0.0     0.0     0.1     0.0     0.0     0.0     0.0     0.0     0.0     0.0     0.1     0.2     0.4     0.0     0.2     0.2     0.1     0.0     0.0     0.0     0.0     0.0     0.0     0.0
 2024 306    11    0.00    0.00    0.00    0.01     7.7   0.001   0.008   0.012   0.008     0.2     0.0     0.2     0.4     559    0.02    0.56    0.38    0.59     0.0     0.0     0.0     0.0     0.0     0.0     0.1     0.1     0.2     0.0     99.    137.     77.     20.     19.     19.     20.     18.     33.     26.     0.1     0.1     0.1     0.0     0.0     0.0     0.0     0.0     0.0     0.0     0.0     0.0     0.0     0.0     0.0     0.0     0.1     0.1     0.2     0.0     0.2     0.2     0.1     0.0     0.0     0.0     0.0     0.0     0.0     0.0
 2024 307    12    0.00    0.00    0.00    0.01     8.2   0.001   0.008   0.012   0.008     0.2     0.0     0.2     0.3     502    0.02    0.50    0.30    0.53     0.0     0.0     0.0     0.0     0.0     0.0     0.0     0.1     0.2     0.0     84.    127.     72.     19.     18.     18.     18.     17.     30.     24.     0.1     0.1     0.1     0.0     0.0     0.0     0.0     0.0     0.0     0.0     0.0     0.0     0.0     0.0     0.0     0.0     0.0     0.1     0.2     0.0     0.2     0.1     0.1     0.0     0.0     0.0     0.0     0.0     0.0     0.0
 2024 308    13    0.00    0.00    0.00    0.01     8.7   0.001   0.009   0.013   0.009     0.2     0.0     0.3     0.4     451    0.02    0.45    0.35    0.48     0.0     0.0     0.0     0.0     0.0     0.0     0.0     0.1     0.1     0.1     74.    116.     67.     17.     16.     16.     17.     15.     27.     22.     0.1     0.1     0.1     0.0     0.0     0.0     0.0     0.0     0.0     0.0     0.0     0.0     0.0     0.0     0.0     0.0     0.0     0.1     0.1     0.1     0.1     0.1     0.1     0.0     0.0     0.0     0.0     0.0     0.0     0.0
 2024 309    14    0.00    0.00    0.00    0.01     9.1   0.001   0.009   0.013   0.009     0.2     0.0     0.3     0.2     393    0.01    0.39    0.15    0.41     0.0     0.0     0.0     0.0     0.0     0.0     0.0     0.0     0.1     0.1     61.    101.     59.     15.     14.     15.     15.     14.     24.     19.     0.1     0.1     0.1     0.0     0.0     0.0     0.0     0.0     0.0     0.0     0.0     0.0     0.0     0.0     0.0     0.0     0.0     0.0     0.1     0.1     0.1     0.1     0.1     0.0     0.0     0.0     0.0     0.0     0.0     0.0
 2024 310    15    0.00    0.00    0.00    0.01     9.4   0.001   0.009   0.013   0.009     0.2     0.0     0.3     0.0     345    0.00    0.34    0.02    0.35     0.0     0.0     0.0     0.0     0.0     0.0     0.0     0.0     0.0     0.0     52.     88.     53.     13.     13.     13.     13.     12.     23.     17.     0.1     0.1     0.1     0.0     0.0     0.0     0.0     0.0     0.0     0.0     0.0     0.0     0.0     0.0     0.0     0.0     0.0     0.0     0.0     0.0     0.1     0.1     0.1     0.0     0.0     0.0     0.0     0.0     0.0     0.0
 2024 311    16    0.00    0.00    0.00    0.01     9.7   0.001   0.010   0.013   0.010     0.2     0.0     0.3     0.0     300    0.00    0.30    0.02    0.31     0.0     0.0     0.0     0.0     0.0     0.0     0.0     0.0     0.0     0.0     46.     76.     45.     12.     11.     11.     12.     11.     20.     15.     0.0     0.1     0.0     0.0     0.0     0.0     0.0     0.0     0.0     0.0     0.0     0.0     0.0     0.0     0.0     0.0     0.0     0.0     0.0     0.0     0.1     0.1     0.1     0.0     0.0     0.0     0.0     0.0     0.0     0.0
 2024 312    17    0.00    0.00    0.00    0.01    10.0   0.001   0.010   0.013   0.010     0.2     0.0     0.3     0.0     281    0.00    0.28    0.01    0.29     0.0     0.0     0.0     0.0     0.0     0.0     0.0     0.0     0.0     0.0     43.     71.     43.     11.     11.     11.     11.     10.     19.     15.     0.0     0.1     0.0     0.0     0.0     0.0     0.0     0.0     0.0     0.0     0.0     0.0     0.0     0.0     0.0     0.0     0.0     0.0     0.0     0.0     0.1     0.1     0.0     0.0     0.0     0.0     0.0     0.0     0.0     0.0
 2024 313    18    0.00    0.00    0.00    0.01    10.3   0.001   0.010   0.013   0.010     0.2     0.0     0.2     0.0     258    0.00    0.26    0.01    0.26     0.0     0.0     0.0     0.0     0.0     0.0     0.0     0.0     0.0     0.0     40.     65.     39.     10.     10.     10.     10.      9.     18.     14.     0.0     0.1     0.0     0.0     0.0     0.0     0.0     0.0     0.0     0.0     0.0     0.0     0.0     0.0     0.0     0.0     0.0     0.0     0.0     0.0     0.1     0.1     0.0     0.0     0.0     0.0     0.0     0.0     0.0     0.0
 2024 314    19    0.00    0.00    0.00    0.01    10.5   0.001   0.010   0.013   0.011     0.2     0.0     0.2     0.0     235    0.00    0.24    0.01    0.24     0.0     0.0     0.0     0.0     0.0     0.0     0.0     0.0     0.0     0.0     36.     59.     35.      9.      9.      9.     10.      9.     16.     13.     0.0     0.1     0.0     0.0     0.0     0.0     0.0     0.0     0.0     0.0     0.0     0.0     0.0     0.0     0.0     0.0     0.0     0.0     0.0     0.0     0.1     0.1     0.0     0.0     0.0     0.0     0.0     0.0     0.0     0.0
 2024 315    20    0.00    0.00    0.00    0.01    10.7   0.001   0.011   0.013   0.011     0.2     0.1     0.2     0.0     212    0.00    0.21    0.01    0.21     0.0     0.0     0.0     0.0     0.0     0.0     0.0     0.0     0.0     0.0     32.     52.     32.      8.      8.      8.      9.      8.     15.     12.     0.0     0.1     0.0     0.0     0.0     0.0     0.0     0.0     0.0     0.0     0.0     0.0     0.0     0.0     0.0     0.0     0.0     0.0     0.0     0.0     0.1     0.1     0.0     0.0     0.0     0.0     0.0     0.0     0.0     0.0
 2024 316    21    0.00    0.00    0.00    0.01    10.9   0.001   0.011   0.013   0.011     0.2     0.1     0.2     0.0     198    0.00    0.20    0.01    0.20     0.0     0.0     0.0     0.0     0.0     0.0     0.0     0.0     0.0     0.0     29.     48.     29.      8.      8.      8.      8.      8.     14.     12.     0.0     0.0     0.0     0.0     0.0     0.0     0.0     0.0     0.0     0.0     0.0     0.0     0.0     0.0     0.0     0.0     0.0     0.0     0.0     0.0     0.1     0.1     0.0     0.0     0.0     0.0     0.0     0.0     0.0     0.0
 2024 317    22    0.00    0.00    0.00    0.01    11.1   0.001   0.011   0.013   0.011     0.1     0.0     0.1     0.0     171    0.00    0.17    0.01    0.14     0.0     0.0     0.0     0.0     0.0     0.0     0.0     0.0     0.0     0.0     24.     41.     25.      7.      7.      7.      7.      7.     13.     11.     0.0     0.0     0.0     0.0     0.0     0.0     0.0     0.0     0.0     0.0     0.0     0.0     0.0     0.0     0.0     0.0     0.0     0.0     0.0     0.0     0.0     0.0     0.0     0.0     0.0     0.0     0.0     0.0     0.0     0.0
 2024 318    23    0.00    0.00    0.00    0.01    11.2   0.001   0.011   0.013   0.011     0.1     0.0     0.1     0.0     151    0.00    0.15    0.00    0.11     0.0     0.0     0.0     0.0     0.0     0.0     0.0     0.0     0.0     0.0     21.     35.     22.      6.      6.      6.      7.      6.     11.     11.     0.0     0.0     0.0     0.0     0.0     0.0     0.0     0.0     0.0     0.0     0.0     0.0     0.0     0.0     0.0     0.0     0.0     0.0     0.0     0.0     0.0     0.0     0.0     0.0     0.0     0.0     0.0     0.0     0.0     0.0
 2024 319    24    0.00    0.00    0.00    0.01    11.4   0.001   0.011   0.013   0.011     0.1     0.0     0.1     0.0     132    0.00    0.13    0.00    0.09     0.0     0.0     0.0     0.0     0.0     0.0     0.0     0.0     0.0     0.0     18.     31.     19.      5.      5.      5.      6.      5.     10.     10.     0.0     0.0     0.0     0.0     0.0     0.0     0.0     0.0     0.0     0.0     0.0     0.0     0.0     0.0     0.0     0.0     0.0     0.0     0.0     0.0     0.0     0.0     0.0     0.0     0.0     0.0     0.0     0.0     0.0     0.0
 2024 320    25    0.00    0.00    0.00    0.01    11.5   0.001   0.011   0.013   0.011     0.1     0.1     0.1     0.0     120    0.00    0.12    0.00    0.08     0.0     0.0     0.0     0.0     0.0     0.0     0.0     0.0     0.0     0.0     16.     28.     17.      5.      5.      5.      5.      5.      9.      9.     0.0     0.0     0.0     0.0     0.0     0.0     0.0     0.0     0.0     0.0     0.0     0.0     0.0     0.0     0.0     0.0     0.0     0.0     0.0     0.0     0.0     0.0     0.0     0.0     0.0     0.0     0.0     0.0     0.0     0.0
 2024 321    26    0.00    0.00    0.00    0.01    11.6   0.001   0.012   0.013   0.011     0.1     0.1     0.2     0.0     111    0.00    0.11    0.00    0.08     0.0     0.0     0.0     0.0     0.0     0.0     0.0     0.0     0.0     0.0     15.     26.     16.      4.      4.      4.      5.      4.      8.      8.     0.0     0.0     0.0     0.0     0.0     0.0     0.0     0.0     0.0     0.0     0.0     0.0     0.0     0.0     0.0     0.0     0.0     0.0     0.0     0.0     0.0     0.0     0.0     0.0     0.0     0.0     0.0     0.0     0.0     0.0
 2024 322    27    0.00    0.00    0.00    0.01    11.7   0.001   0.012   0.013   0.012     0.2     0.1     0.2     0.0     103    0.00    0.10    0.00    0.08     0.0     0.0     0.0     0.0     0.0     0.0     0.0     0.0     0.0     0.0     14.     24.     15.      4.      4.      4.      4.      4.      8.      7.     0.0     0.0     0.0     0.0     0.0     0.0     0.0     0.0     0.0     0.0     0.0     0.0     0.0     0.0     0.0     0.0     0.0     0.0     0.0     0.0     0.0     0.0     0.0     0.0     0.0     0.0     0.0     0.0     0.0     0.0
 2024 323    28    0.00    0.00    0.00    0.01    11.8   0.001   0.012   0.013   0.012     0.1     0.1     0.1     0.0      95    0.00    0.10    0.00    0.07     0.0     0.0     0.0     0.0     0.0     0.0     0.0     0.0     0.0     0.0     12.     22.     14.      4.      4.      4.      4.      4.      7.      7.     0.0     0.0     0.0     0.0     0.0     0.0     0.0     0.0     0.0     0.0     0.0     0.0     0.0     0.0     0.0     0.0     0.0     0.0     0.0     0.0     0.0     0.0     0.0     0.0     0.0     0.0     0.0     0.0     0.0     0.0
 2024 324    29    0.00    0.00    0.00    0.01    11.9   0.001   0.012   0.013   0.012     0.0     0.0     0.0     0.0      89    0.00    0.09    0.00    0.04     0.0     0.0     0.0     0.0     0.0     0.0     0.0     0.0     0.0     0.0      8.     22.     14.      4.      4.      4.      4.      4.      7.      7.     0.0     0.0     0.0     0.0     0.0     0.0     0.0     0.0     0.0     0.0     0.0     0.0     0.0     0.0     0.0     0.0     0.0     0.0     0.0     0.0     0.0     0.0     0.0     0.0     0.0     0.0     0.0     0.0     0.0     0.0
 2024 325    30    0.00    0.00    0.00    0.01    12.0   0.001   0.012   0.013   0.012     0.0     0.0     0.0     0.0      80    0.00    0.08    0.00    0.03     0.0     0.0     0.0     0.0     0.0     0.0     0.0     0.0     0.0     0.0      7.     15.     14.      4.      4.      4.      4.      4.      6.      7.     0.0     0.0     0.0     0.0     0.0     0.0     0.0     0.0     0.0     0.0     0.0     0.0     0.0     0.0     0.0     0.0     0.0     0.0     0.0     0.0     0.0     0.0     0.0     0.0     0.0     0.0     0.0     0.0     0.0     0.0
 2024 326    31    0.00    0.00    0.00    0.01    12.0   0.001   0.012   0.013   0.012     0.0     0.0     0.0     0.0      73    0.00    0.07    0.00    0.03     0.0     0.0     0.0     0.0     0.0     0.0     0.0     0.0     0.0     0.0      7.     14.     12.      3.      3.      3.      3.      3.      6.      6.     0.0     0.0     0.0     0.0     0.0     0.0     0.0     0.0     0.0     0.0     0.0     0.0     0.0     0.0     0.0     0.0     0.0     0.0     0.0     0.0     0.0     0.0     0.0     0.0     0.0     0.0     0.0     0.0     0.0     0.0
 2024 327    32    0.00    0.00    0.00    0.01    12.1   0.001   0.012   0.013   0.012     0.0     0.0     0.0     0.0      70    0.00    0.07    0.00    0.03     0.0     0.0     0.0     0.0     0.0     0.0     0.0     0.0     0.0     0.0      8.     15.     11.      3.      3.      3.      3.      3.      5.      5.     0.0     0.0     0.0     0.0     0.0     0.0     0.0     0.0     0.0     0.0     0.0     0.0     0.0     0.0     0.0     0.0     0.0     0.0     0.0     0.0     0.0     0.0     0.0     0.0     0.0     0.0     0.0     0.0     0.0     0.0
 2024 328    33    0.00    0.00    0.01    0.01    12.2   0.001   0.012   0.013   0.012     0.1     0.0     0.1     0.0      64    0.00    0.06    0.00    0.02     0.0     0.0     0.0     0.0     0.0     0.0     0.0     0.0     0.0     0.0      8.     15.      9.      2.      2.      2.      3.      3.      5.      5.     0.0     0.0     0.0     0.0     0.0     0.0     0.0     0.0     0.0     0.0     0.0     0.0     0.0     0.0     0.0     0.0     0.0     0.0     0.0     0.0     0.0     0.0     0.0     0.0     0.0     0.0     0.0     0.0     0.0     0.0
 2024 329    34    0.00    0.00    0.01    0.01    12.2   0.001   0.012   0.013   0.012     0.1     0.1     0.1     0.0      58    0.00    0.06    0.00    0.02     0.0     0.0     0.0     0.0     0.0     0.0     0.0     0.0     0.0     0.0      7.     14.      8.      2.      2.      2.      2.      2.      4.      4.     0.0     0.0     0.0     0.0     0.0     0.0     0.0     0.0     0.0     0.0     0.0     0.0     0.0     0.0     0.0     0.0     0.0     0.0     0.0     0.0     0.0     0.0     0.0     0.0     0.0     0.0     0.0     0.0     0.0     0.0
 2024 330    35    0.00    0.00    0.01    0.01    12.3   0.001   0.012   0.013   0.012     0.1     0.1     0.1     0.0      53    0.00    0.05    0.00    0.03     0.0     0.0     0.0     0.0     0.0     0.0     0.0     0.0     0.0     0.0      6.     12.      8.      2.      2.      2.      2.      2.      4.      4.     0.0     0.0     0.0     0.0     0.0     0.0     0.0     0.0     0.0     0.0     0.0     0.0     0.0     0.0     0.0     0.0     0.0     0.0     0.0     0.0     0.0     0.0     0.0     0.0     0.0     0.0     0.0     0.0     0.0     0.0
 2024 331    36    0.00    0.00    0.01    0.01    12.3   0.001   0.012   0.013   0.012     0.1     0.1     0.1     0.0      51    0.00    0.05    0.00    0.03     0.0     0.0     0.0     0.0     0.0     0.0     0.0     0.0     0.0     0.0      6.     12.      8.      2.      2.      2.      2.      2.      4.      4.     0.0     0.0     0.0     0.0     0.0     0.0     0.0     0.0     0.0     0.0     0.0     0.0     0.0     0.0     0.0     0.0     0.0     0.0     0.0     0.0     0.0     0.0     0.0     0.0     0.0     0.0     0.0     0.0     0.0     0.0
 2024 332    37    0.00    0.00    0.01    0.01    12.4   0.001   0.012   0.013   0.012     0.0     0.0     0.0     0.0      51    0.00    0.05    0.00    0.03     0.0     0.0     0.0     0.0     0.0     0.0     0.0     0.0     0.0     0.0      5.     12.      8.      2.      2.      2.      2.      2.      4.      4.     0.0     0.0     0.0     0.0     0.0     0.0     0.0     0.0     0.0     0.0     0.0     0.0     0.0     0.0     0.0     0.0     0.0     0.0     0.0     0.0     0.0     0.0     0.0     0.0     0.0     0.0     0.0     0.0     0.0     0.0
 2024 333    38    0.00    0.00    0.01    0.01    12.4   0.001   0.012   0.013   0.012     0.1     0.1     0.1     0.0      52    0.00    0.05    0.00    0.03     0.0     0.0     0.0     0.0     0.0     0.0     0.0     0.0     0.0     0.0      5.     12.      8.      2.      2.      2.      2.      2.      4.      4.     0.0     0.0     0.0     0.0     0.0     0.0     0.0     0.0     0.0     0.0     0.0     0.0     0.0     0.0     0.0     0.0     0.0     0.0     0.0     0.0     0.0     0.0     0.0     0.0     0.0     0.0     0.0     0.0     0.0     0.0
 2024 334    39    0.00    0.00    0.01    0.01    12.5   0.001   0.012   0.013   0.012     0.0     0.0     0.0     0.0      52    0.00    0.05    0.00    0.02     0.0     0.0     0.0     0.0     0.0     0.0     0.0     0.0     0.0     0.0      3.     11.      8.      2.      2.      2.      2.      2.      4.      4.     0.0     0.0     0.0     0.0     0.0     0.0     0.0     0.0     0.0     0.0     0.0     0.0     0.0     0.0     0.0     0.0     0.0     0.0     0.0     0.0     0.0     0.0     0.0     0.0     0.0     0.0     0.0     0.0     0.0     0.0
 2024 335    40    0.00    0.00    0.01    0.02    12.5   0.001   0.013   0.014   0.012     0.1     0.1     0.1     1.4      51    0.08    0.05    1.27    0.05     0.0     0.0     0.0     0.0     0.0     0.0     0.0     0.0     0.0     0.7      4.     10.      8.      2.      2.      2.      2.      2.      5.      4.     0.0     0.0     0.0     0.0     0.0     0.0     0.0     0.0     0.0     0.0     0.0     0.0     0.0     0.0     0.0     0.0     0.0     0.0     0.0     0.7     0.0     0.0     0.0     0.0     0.0     0.0     0.0     0.0     0.0     0.0
 2024 336    41    0.00    0.00    0.01    0.02    12.6   0.001   0.013   0.016   0.012     0.1     0.1     0.1     1.2      45    0.07    0.04    1.15    0.06     0.0     0.0     0.0     0.0     0.0     0.0     0.0     0.3     0.3     0.3      3.      8.      6.      2.      2.      2.      2.      2.      4.      4.     0.0     0.0     0.0     0.0     0.0     0.0     0.0     0.0     0.0     0.0     0.0     0.0     0.0     0.0     0.0     0.0     0.0     0.3     0.3     0.3     0.0     0.0     0.0     0.0     0.0     0.0     0.0     0.0     0.0     0.0
 2024 337    42    0.00    0.00    0.01    0.02    12.6   0.001   0.013   0.016   0.012     0.1     0.1     0.1     0.8      37    0.05    0.04    0.76    0.04     0.0     0.0     0.0     0.0     0.0     0.0     0.0     0.0     0.0     0.3      2.      7.      5.      2.      2.      2.      2.      2.      4.      4.     0.0     0.0     0.0     0.0     0.0     0.0     0.0     0.0     0.0     0.0     0.0     0.0     0.0     0.0     0.0     0.0     0.0     0.0     0.0     0.3     0.0     0.0     0.0     0.0     0.0     0.0     0.0     0.0     0.0     0.0
 2024 338    43    0.00    0.00    0.01    0.02    12.6   0.001   0.013   0.016   0.012     0.0     0.0     0.0     0.2      32    0.01    0.03    0.22    0.02     0.0     0.0     0.0     0.0     0.0     0.0     0.0     0.0     0.0     0.0      1.      6.      5.      1.      1.      1.      2.      2.      3.      3.     0.0     0.0     0.0     0.0     0.0     0.0     0.0     0.0     0.0     0.0     0.0     0.0     0.0     0.0     0.0     0.0     0.0     0.0     0.0     0.0     0.0     0.0     0.0     0.0     0.0     0.0     0.0     0.0     0.0     0.0
 2024 339    44    0.00    0.00    0.01    0.02    12.7   0.001   0.013   0.017   0.012     0.0     0.0     0.0     0.3      29    0.02    0.03    0.24    0.02     0.0     0.0     0.0     0.0     0.0     0.0     0.0     0.0     0.0     0.0      1.      5.      4.      1.      1.      1.      1.      2.      3.      3.     0.0     0.0     0.0     0.0     0.0     0.0     0.0     0.0     0.0     0.0     0.0     0.0     0.0     0.0     0.0     0.0     0.0     0.0     0.0     0.0     0.0     0.0     0.0     0.0     0.0     0.0     0.0     0.0     0.0     0.0
 2024 340    45    0.00    0.00    0.01    0.02    12.7   0.001   0.013   0.017   0.012     0.1     0.1     0.1     0.3      27    0.02    0.03    0.25    0.02     0.0     0.0     0.0     0.0     0.0     0.0     0.0     0.0     0.0     0.0      1.      5.      4.      1.      1.      1.      1.      1.      3.      3.     0.0     0.0     0.0     0.0     0.0     0.0     0.0     0.0     0.0     0.0     0.0     0.0     0.0     0.0     0.0     0.0     0.0     0.0     0.0     0.0     0.0     0.0     0.0     0.0     0.0     0.0     0.0     0.0     0.0     0.0
 2024 341    46    0.00    0.00    0.01    0.02    12.7   0.001   0.013   0.017   0.012     0.1     0.1     0.1     0.3      25    0.02    0.02    0.24    0.02     0.0     0.0     0.0     0.0     0.0     0.0     0.0     0.0     0.0     0.0      1.      4.      4.      1.      1.      1.      1.      1.      3.      3.     0.0     0.0     0.0     0.0     0.0     0.0     0.0     0.0     0.0     0.0     0.0     0.0     0.0     0.0     0.0     0.0     0.0     0.0     0.0     0.0     0.0     0.0     0.0     0.0     0.0     0.0     0.0     0.0     0.0     0.0
 2024 342    47    0.00    0.00    0.01    0.02    12.7   0.001   0.013   0.017   0.012     0.0     0.0     0.0     0.3      24    0.02    0.02    0.27    0.02     0.0     0.0     0.0     0.0     0.0     0.0     0.0     0.0     0.0     0.0      1.      4.      4.      1.      1.      1.      1.      1.      3.      3.     0.0     0.0     0.0     0.0     0.0     0.0     0.0     0.0     0.0     0.0     0.0     0.0     0.0     0.0     0.0     0.0     0.0     0.0     0.0     0.0     0.0     0.0     0.0     0.0     0.0     0.0     0.0     0.0     0.0     0.0
 2024 343    48    0.00    0.00    0.01    0.02    12.8   0.001   0.013   0.018   0.012     0.0     0.0     0.0     0.3      23    0.02    0.02    0.31    0.02     0.0     0.0     0.0     0.0     0.0     0.0     0.0     0.0     0.0     0.0      1.      4.      3.      1.      1.      1.      1.      1.      2.      2.     0.0     0.0     0.0     0.0     0.0     0.0     0.0     0.0     0.0     0.0     0.0     0.0     0.0     0.0     0.0     0.0     0.0     0.0     0.0     0.0     0.0     0.0     0.0     0.0     0.0     0.0     0.0     0.0     0.0     0.0
 2024 344    49    0.00    0.00    0.01    0.02    12.8   0.001   0.013   0.018   0.012     0.0     0.0     0.0     0.4      21    0.02    0.02    0.35    0.02     0.0     0.0     0.0     0.0     0.0     0.0     0.0     0.0     0.0     0.0      1.      3.      3.      1.      1.      1.      1.      1.      2.      2.     0.0     0.0     0.0     0.0     0.0     0.0     0.0     0.0     0.0     0.0     0.0     0.0     0.0     0.0     0.0     0.0     0.0     0.0     0.0     0.0     0.0     0.0     0.0     0.0     0.0     0.0     0.0     0.0     0.0     0.0
 2024 345    50    0.00    0.00    0.01    0.02    12.8   0.001   0.013   0.019   0.012     0.1     0.1     0.1     0.4      20    0.03    0.02    0.41    0.02     0.0     0.0     0.0     0.0     0.0     0.0     0.0     0.0     0.0     0.0      0.      3.      3.      1.      1.      1.      1.      1.      2.      2.     0.0     0.0     0.0     0.0     0.0     0.0     0.0     0.0     0.0     0.0     0.0     0.0     0.0     0.0     0.0     0.0     0.0     0.0     0.0     0.0     0.0     0.0     0.0     0.0     0.0     0.0     0.0     0.0     0.0     0.0
 2024 346    51    0.00    0.00    0.01    0.02    12.8   0.001   0.013   0.020   0.012     0.1     0.1     0.1     1.9      18    0.12    0.02    1.81    0.05     0.0     0.0     0.0     0.0     0.0     0.0     0.0     0.0     0.0     0.0      0.      3.      3.      1.      1.      1.      1.      1.      2.      2.     0.0     0.0     0.0     0.0     0.0     0.0     0.0     0.0     0.0     0.0     0.0     0.0     0.0     0.0     0.0     0.0     0.0     0.0     0.0     0.0     0.0     0.0     0.0     0.0     0.0     0.0     0.0     0.0     0.0     0.0
 2024 347    52    0.01    0.00    0.01    0.02    12.8   0.001   0.013   0.022   0.012     0.1     0.2     0.1     1.3      16    0.08    0.02    1.22    0.04     0.0     0.0     0.0     0.0     0.0     0.0     0.0     0.0     0.0     0.0      0.      2.      2.      1.      1.      1.      1.      1.      2.      2.     0.0     0.0     0.0     0.0     0.0     0.0     0.0     0.0     0.0     0.0     0.0     0.0     0.0     0.0     0.0     0.0     0.0     0.0     0.0     0.0     0.0     0.0     0.0     0.0     0.0     0.0     0.0     0.0     0.0     0.0
 2024 348    53    0.01    0.00    0.01    0.02    12.9   0.001   0.013   0.022   0.012     0.1     0.2     0.1     0.3      15    0.02    0.01    0.27    0.00     0.0     0.0     0.0     0.0     0.0     0.0     0.0     0.0     0.0     0.0      0.      2.      2.      1.      1.      1.      1.      1.      2.      2.     0.0     0.0     0.0     0.0     0.0     0.0     0.0     0.0     0.0     0.0     0.0     0.0     0.0     0.0     0.0     0.0     0.0     0.0     0.0     0.0     0.0     0.0     0.0     0.0     0.0     0.0     0.0     0.0     0.0     0.0
 2024 349    54    0.01    0.00    0.01    0.02    12.9   0.001   0.013   0.022   0.012     0.1     0.2     0.1     0.0      13    0.00    0.01    0.00    0.01     0.0     0.0     0.0     0.0     0.0     0.0     0.0     0.0     0.0     0.0      0.      2.      2.      1.      1.      1.      1.      1.      1.      1.     0.0     0.0     0.0     0.0     0.0     0.0     0.0     0.0     0.0     0.0     0.0     0.0     0.0     0.0     0.0     0.0     0.0     0.0     0.0     0.0     0.0     0.0     0.0     0.0     0.0     0.0     0.0     0.0     0.0     0.0
 2024 350    55    0.01    0.00    0.01    0.02    12.9   0.001   0.013   0.022   0.012     0.1     0.2     0.1     0.0      12    0.00    0.01    0.00    0.01     0.0     0.0     0.0     0.0     0.0     0.0     0.0     0.0     0.0     0.0      0.      2.      2.      1.      1.      1.      1.      1.      1.      1.     0.0     0.0     0.0     0.0     0.0     0.0     0.0     0.0     0.0     0.0     0.0     0.0     0.0     0.0     0.0     0.0     0.0     0.0     0.0     0.0     0.0     0.0     0.0     0.0     0.0     0.0     0.0     0.0     0.0     0.0
 2024 351    56    0.01    0.00    0.01    0.02    12.9   0.001   0.013   0.022   0.012     0.1     0.2     0.1     0.0      12    0.00    0.01    0.00    0.01     0.0     0.0     0.0     0.0     0.0     0.0     0.0     0.0     0.0     0.0      0.      2.      2.      0.      0.      1.      1.      1.      1.      1.     0.0     0.0     0.0     0.0     0.0     0.0     0.0     0.0     0.0     0.0     0.0     0.0     0.0     0.0     0.0     0.0     0.0     0.0     0.0     0.0     0.0     0.0     0.0     0.0     0.0     0.0     0.0     0.0     0.0     0.0
 2024 352    57    0.01    0.00    0.01    0.02    12.9   0.001   0.013   0.022   0.012     0.1     0.2     0.1     0.0      11    0.00    0.01    0.00    0.01     0.0     0.0     0.0     0.0     0.0     0.0     0.0     0.0     0.0     0.0      0.      2.      2.      0.      0.      1.      1.      1.      1.      1.     0.0     0.0     0.0     0.0     0.0     0.0     0.0     0.0     0.0     0.0     0.0     0.0     0.0     0.0     0.0     0.0     0.0     0.0     0.0     0.0     0.0     0.0     0.0     0.0     0.0     0.0     0.0     0.0     0.0     0.0
 2024 353    58    0.01    0.00    0.01    0.02    12.9   0.001   0.013   0.022   0.012     0.1     0.2     0.1     0.0      11    0.00    0.01    0.00    0.01     0.0     0.0     0.0     0.0     0.0     0.0     0.0     0.0     0.0     0.0      0.      2.      2.      0.      0.      1.      1.      1.      1.      1.     0.0     0.0     0.0     0.0     0.0     0.0     0.0     0.0     0.0     0.0     0.0     0.0     0.0     0.0     0.0     0.0     0.0     0.0     0.0     0.0     0.0     0.0     0.0     0.0     0.0     0.0     0.0     0.0     0.0     0.0
 2024 354    59    0.01    0.00    0.01    0.02    12.9   0.001   0.013   0.022   0.012     0.1     0.2     0.1     0.2      11    0.01    0.01    0.16    0.01     0.0     0.0     0.0     0.0     0.0     0.0     0.0     0.0     0.0     0.0      0.      1.      2.      0.      1.      1.      1.      1.      1.      1.     0.0     0.0     0.0     0.0     0.0     0.0     0.0     0.0     0.0     0.0     0.0     0.0     0.0     0.0     0.0     0.0     0.0     0.0     0.0     0.0     0.0     0.0     0.0     0.0     0.0     0.0     0.0     0.0     0.0     0.0
 2024 355    60    0.01    0.00    0.01    0.02    12.9   0.001   0.013   0.022   0.012     0.1     0.1     0.0     0.4      12    0.02    0.01    0.33    0.02     0.0     0.0     0.0     0.0     0.0     0.0     0.0     0.0     0.0     0.0      0.      1.      2.      1.      1.      1.      1.      1.      1.      1.     0.0     0.0     0.0     0.0     0.0     0.0     0.0     0.0     0.0     0.0     0.0     0.0     0.0     0.0     0.0     0.0     0.0     0.0     0.0     0.0     0.0     0.0     0.0     0.0     0.0     0.0     0.0     0.0     0.0     0.0
 2024 356    61    0.01    0.00    0.01    0.02    13.0   0.001   0.013   0.023   0.012     0.1     0.1     0.1     0.5      12    0.03    0.01    0.50    0.02     0.0     0.0     0.0     0.0     0.0     0.0     0.0     0.0     0.0     0.0      0.      1.      2.      0.      0.      0.      1.      1.      1.      1.     0.0     0.0     0.0     0.0     0.0     0.0     0.0     0.0     0.0     0.0     0.0     0.0     0.0     0.0     0.0     0.0     0.0     0.0     0.0     0.0     0.0     0.0     0.0     0.0     0.0     0.0     0.0     0.0     0.0     0.0
 2024 357    62    0.01    0.00    0.01    0.02    13.0   0.001   0.013   0.024   0.012     0.1     0.1     0.1     0.7      11    0.04    0.01    0.66    0.02     0.0     0.0     0.0     0.0     0.0     0.0     0.0     0.0     0.0     0.0      0.      1.      1.      0.      0.      0.      0.      1.      1.      1.     0.0     0.0     0.0     0.0     0.0     0.0     0.0     0.0     0.0     0.0     0.0     0.0     0.0     0.0     0.0     0.0     0.0     0.0     0.0     0.0     0.0     0.0     0.0     0.0     0.0     0.0     0.0     0.0     0.0     0.0
 2024 358    63    0.01    0.00    0.01    0.03    13.0   0.001   0.013   0.025   0.012     0.0     0.0     0.0     1.1      10    0.07    0.01    1.03    0.03     0.0     0.0     0.0     0.0     0.0     0.0     0.0     0.0     0.0     0.2      0.      1.      1.      0.      0.      0.      0.      0.      1.      1.     0.0     0.0     0.0     0.0     0.0     0.0     0.0     0.0     0.0     0.0     0.0     0.0     0.0     0.0     0.0     0.0     0.0     0.0     0.0     0.2     0.0     0.0     0.0     0.0     0.0     0.0     0.0     0.0     0.0     0.0
 2024 359    64    0.01    0.00    0.01    0.03    13.0   0.001   0.013   0.025   0.012     0.0     0.1     0.0     0.9       9    0.05    0.01    0.84    0.03     0.0     0.0     0.0     0.0     0.0     0.0     0.0     0.0     0.0     0.0      0.      1.      1.      0.      0.      0.      0.      0.      1.      1.     0.0     0.0     0.0     0.0     0.0     0.0     0.0     0.0     0.0     0.0     0.0     0.0     0.0     0.0     0.0     0.0     0.0     0.0     0.0     0.0     0.0     0.0     0.0     0.0     0.0     0.0     0.0     0.0     0.0     0.0
 2024 360    65    0.01    0.00    0.01    0.03    13.0   0.002   0.013   0.026   0.012     0.1     0.1     0.1     0.5       8    0.03    0.01    0.47    0.02     0.0     0.0     0.0     0.0     0.0     0.0     0.0     0.0     0.0     0.0      0.      1.      1.      0.      0.      0.      0.      0.      1.      1.     0.0     0.0     0.0     0.0     0.0     0.0     0.0     0.0     0.0     0.0     0.0     0.0     0.0     0.0     0.0     0.0     0.0     0.0     0.0     0.0     0.0     0.0     0.0     0.0     0.0     0.0     0.0     0.0     0.0     0.0
 2024 361    66    0.01    0.00    0.01    0.03    13.0   0.002   0.013   0.026   0.012     0.1     0.2     0.1     0.5       8    0.03    0.01    0.45    0.02     0.0     0.0     0.0     0.0     0.0     0.0     0.0     0.0     0.0     0.0      0.      0.      1.      0.      0.      0.      0.      0.      1.      1.     0.0     0.0     0.0     0.0     0.0     0.0     0.0     0.0     0.0     0.0     0.0     0.0     0.0     0.0     0.0     0.0     0.0     0.0     0.0     0.0     0.0     0.0     0.0     0.0     0.0     0.0     0.0     0.0     0.0     0.0
 2024 362    67    0.01    0.00    0.01    0.03    13.0   0.002   0.013   0.027   0.013     0.1     0.2     0.1     0.5       7    0.03    0.01    0.43    0.02     0.0     0.0     0.0     0.0     0.0     0.0     0.0     0.0     0.0     0.0      0.      0.      1.      0.      0.      0.      0.      0.      1.      1.     0.0     0.0     0.0     0.0     0.0     0.0     0.0     0.0     0.0     0.0     0.0     0.0     0.0     0.0     0.0     0.0     0.0     0.0     0.0     0.0     0.0     0.0     0.0     0.0     0.0     0.0     0.0     0.0     0.0     0.0
 2024 363    68    0.01    0.00    0.01    0.03    13.0   0.002   0.013   0.027   0.013     0.1     0.3     0.1     0.3       6    0.02    0.01    0.26    0.01     0.0     0.0     0.0     0.0     0.0     0.0     0.0     0.0     0.0     0.0      0.      0.      1.      0.      0.      0.      0.      0.      1.      1.     0.0     0.0     0.0     0.0     0.0     0.0     0.0     0.0     0.0     0.0     0.0     0.0     0.0     0.0     0.0     0.0     0.0     0.0     0.0     0.0     0.0     0.0     0.0     0.0     0.0     0.0     0.0     0.0     0.0     0.0
 2024 364    69    0.01    0.01    0.01    0.03    13.0   0.002   0.013   0.027   0.013     0.1     0.3     0.1     0.1       6    0.01    0.01    0.13    0.01     0.0     0.0     0.0     0.0     0.0     0.0     0.0     0.0     0.0     0.0      0.      0.      1.      0.      0.      0.      0.      0.      1.      1.     0.0     0.0     0.0     0.0     0.0     0.0     0.0     0.0     0.0     0.0     0.0     0.0     0.0     0.0     0.0     0.0     0.0     0.0     0.0     0.0     0.0     0.0     0.0     0.0     0.0     0.0     0.0     0.0     0.0     0.0
 2024 365    70    0.01    0.01    0.01    0.03    13.0   0.002   0.013   0.027   0.013     0.1     0.3     0.1     0.1       5    0.01    0.01    0.12    0.00     0.0     0.0     0.0     0.0     0.0     0.0     0.0     0.0     0.0     0.0      0.      0.      1.      0.      0.      0.      0.      0.      1.      1.     0.0     0.0     0.0     0.0     0.0     0.0     0.0     0.0     0.0     0.0     0.0     0.0     0.0     0.0     0.0     0.0     0.0     0.0     0.0     0.0     0.0     0.0     0.0     0.0     0.0     0.0     0.0     0.0     0.0     0.0
 2024 366    71    0.01    0.01    0.01    0.03    13.0   0.002   0.013   0.027   0.013     0.1     0.3     0.1     0.0       5    0.00    0.00    0.00    0.00     0.0     0.0     0.0     0.0     0.0     0.0     0.0     0.0     0.0     0.0      0.      0.      1.      0.      0.      0.      0.      0.      1.      1.     0.0     0.0     0.0     0.0     0.0     0.0     0.0     0.0     0.0     0.0     0.0     0.0     0.0     0.0     0.0     0.0     0.0     0.0     0.0     0.0     0.0     0.0     0.0     0.0     0.0     0.0     0.0     0.0     0.0     0.0
 2025 001    72    0.01    0.01    0.01    0.03    13.0   0.002   0.013   0.027   0.013     0.1     0.3     0.1     0.0       4    0.00    0.00    0.00    0.00     0.0     0.0     0.0     0.0     0.0     0.0     0.0     0.0     0.0     0.0      0.      0.      0.      0.      0.      0.      0.      0.      0.      1.     0.0     0.0     0.0     0.0     0.0     0.0     0.0     0.0     0.0     0.0     0.0     0.0     0.0     0.0     0.0     0.0     0.0     0.0     0.0     0.0     0.0     0.0     0.0     0.0     0.0     0.0     0.0     0.0     0.0     0.0
 2025 002    73    0.01    0.01    0.01    0.03    13.0   0.002   0.013   0.027   0.013     0.1     0.2     0.1     0.0       4    0.00    0.00    0.00    0.00     0.0     0.0     0.0     0.0     0.0     0.0     0.0     0.0     0.0     0.0      0.      0.      0.      0.      0.      0.      0.      0.      0.      1.     0.0     0.0     0.0     0.0     0.0     0.0     0.0     0.0     0.0     0.0     0.0     0.0     0.0     0.0     0.0     0.0     0.0     0.0     0.0     0.0     0.0     0.0     0.0     0.0     0.0     0.0     0.0     0.0     0.0     0.0
 2025 003    74    0.01    0.01    0.01    0.03    13.0   0.002   0.013   0.027   0.013     0.0     0.0     0.0     0.0       4    0.00    0.00    0.00    0.00     0.0     0.0     0.0     0.0     0.0     0.0     0.0     0.0     0.0     0.0      0.      0.      0.      0.      0.      0.      0.      0.      0.      1.     0.0     0.0     0.0     0.0     0.0     0.0     0.0     0.0     0.0     0.0     0.0     0.0     0.0     0.0     0.0     0.0     0.0     0.0     0.0     0.0     0.0     0.0     0.0     0.0     0.0     0.0     0.0     0.0     0.0     0.0
 2025 004    75    0.01    0.01    0.01    0.03    13.0   0.002   0.013   0.027   0.013     0.0     0.1     0.0     0.0       4    0.00    0.00    0.00    0.00     0.0     0.0     0.0     0.0     0.0     0.0     0.0     0.0     0.0     0.0      0.      0.      0.      0.      0.      0.      0.      0.      0.      0.     0.0     0.0     0.0     0.0     0.0     0.0     0.0     0.0     0.0     0.0     0.0     0.0     0.0     0.0     0.0     0.0     0.0     0.0     0.0     0.0     0.0     0.0     0.0     0.0     0.0     0.0     0.0     0.0     0.0     0.0
 2025 005    76    0.01    0.01    0.01    0.03    13.0   0.002   0.013   0.027   0.013     0.1     0.1     0.1     0.0       3    0.00    0.00    0.00    0.00     0.0     0.0     0.0     0.0     0.0     0.0     0.0     0.0     0.0     0.0      0.      0.      0.      0.      0.      0.      0.      0.      0.      0.     0.0     0.0     0.0     0.0     0.0     0.0     0.0     0.0     0.0     0.0     0.0     0.0     0.0     0.0     0.0     0.0     0.0     0.0     0.0     0.0     0.0     0.0     0.0     0.0     0.0     0.0     0.0     0.0     0.0     0.0
 2025 006    77    0.01    0.01    0.01    0.03    13.0   0.002   0.013   0.027   0.013     0.0     0.0     0.0     0.0       3    0.00    0.00    0.00    0.00     0.0     0.0     0.0     0.0     0.0     0.0     0.0     0.0     0.0     0.0      0.      0.      0.      0.      0.      0.      0.      0.      0.      0.     0.0     0.0     0.0     0.0     0.0     0.0     0.0     0.0     0.0     0.0     0.0     0.0     0.0     0.0     0.0     0.0     0.0     0.0     0.0     0.0     0.0     0.0     0.0     0.0     0.0     0.0     0.0     0.0     0.0     0.0
 2025 007    78    0.01    0.01    0.01    0.03    13.1   0.002   0.013   0.027   0.013     0.0     0.0     0.0     0.0       3    0.00    0.00    0.00    0.00     0.0     0.0     0.0     0.0     0.0     0.0     0.0     0.0     0.0     0.0      0.      0.      0.      0.      0.      0.      0.      0.      0.      0.     0.0     0.0     0.0     0.0     0.0     0.0     0.0     0.0     0.0     0.0     0.0     0.0     0.0     0.0     0.0     0.0     0.0     0.0     0.0     0.0     0.0     0.0     0.0     0.0     0.0     0.0     0.0     0.0     0.0     0.0
 2025 008    79    0.01    0.01    0.01    0.03    13.1   0.002   0.013   0.027   0.013     0.0     0.1     0.0     0.0       3    0.00    0.00    0.00    0.00     0.0     0.0     0.0     0.0     0.0     0.0     0.0     0.0     0.0     0.0      0.      0.      0.      0.      0.      0.      0.      0.      0.      0.     0.0     0.0     0.0     0.0     0.0     0.0     0.0     0.0     0.0     0.0     0.0     0.0     0.0     0.0     0.0     0.0     0.0     0.0     0.0     0.0     0.0     0.0     0.0     0.0     0.0     0.0     0.0     0.0     0.0     0.0
 2025 009    80    0.01    0.01    0.01    0.03    13.1   0.002   0.013   0.027   0.013     0.0     0.0     0.0     0.0       3    0.00    0.00    0.00    0.00     0.0     0.0     0.0     0.0     0.0     0.0     0.0     0.0     0.0     0.0      0.      0.      0.      0.      0.      0.      0.      0.      0.      0.     0.0     0.0     0.0     0.0     0.0     0.0     0.0     0.0     0.0     0.0     0.0     0.0     0.0     0.0     0.0     0.0     0.0     0.0     0.0     0.0     0.0     0.0     0.0     0.0     0.0     0.0     0.0     0.0     0.0     0.0
 2025 010    81    0.01    0.01    0.01    0.03    13.1   0.002   0.013   0.027   0.013     0.0     0.0     0.0     0.0       3    0.00    0.00    0.00    0.00     0.0     0.0     0.0     0.0     0.0     0.0     0.0     0.0     0.0     0.0      0.      0.      0.      0.      0.      0.      0.      0.      0.      0.     0.0     0.0     0.0     0.0     0.0     0.0     0.0     0.0     0.0     0.0     0.0     0.0     0.0     0.0     0.0     0.0     0.0     0.0     0.0     0.0     0.0     0.0     0.0     0.0     0.0     0.0     0.0     0.0     0.0     0.0
 2025 011    82    0.01    0.01    0.01    0.03    13.1   0.002   0.013   0.027   0.013     0.0     0.1     0.0     0.2       3    0.01    0.00    0.21    0.00     0.0     0.0     0.0     0.0     0.0     0.0     0.0     0.0     0.0     0.0      0.      0.      0.      0.      0.      0.      0.      0.      0.      0.     0.0     0.0     0.0     0.0     0.0     0.0     0.0     0.0     0.0     0.0     0.0     0.0     0.0     0.0     0.0     0.0     0.0     0.0     0.0     0.0     0.0     0.0     0.0     0.0     0.0     0.0     0.0     0.0     0.0     0.0
 2025 012    83    0.01    0.01    0.01    0.03    13.1   0.002   0.013   0.028   0.013     0.1     0.1     0.0     0.5       3    0.03    0.00    0.43    0.00     0.0     0.0     0.0     0.0     0.0     0.0     0.0     0.0     0.0     0.0      0.      0.      0.      0.      0.      0.      0.      0.      0.      0.     0.0     0.0     0.0     0.0     0.0     0.0     0.0     0.0     0.0     0.0     0.0     0.0     0.0     0.0     0.0     0.0     0.0     0.0     0.0     0.0     0.0     0.0     0.0     0.0     0.0     0.0     0.0     0.0     0.0     0.0
 2025 013    84    0.01    0.01    0.01    0.03    13.1   0.002   0.013   0.028   0.013     0.1     0.2     0.1     0.2       2    0.01    0.00    0.19    0.01     0.0     0.0     0.0     0.0     0.0     0.0     0.0     0.0     0.0     0.0      0.      0.      0.      0.      0.      0.      0.      0.      0.      0.     0.0     0.0     0.0     0.0     0.0     0.0     0.0     0.0     0.0     0.0     0.0     0.0     0.0     0.0     0.0     0.0     0.0     0.0     0.0     0.0     0.0     0.0     0.0     0.0     0.0     0.0     0.0     0.0     0.0     0.0
 2025 014    85    0.01    0.01    0.01    0.03    13.1   0.002   0.013   0.028   0.013     0.1     0.2     0.1     0.0       2    0.00    0.00    0.00    0.00     0.0     0.0     0.0     0.0     0.0     0.0     0.0     0.0     0.0     0.0      0.      0.      0.      0.      0.      0.      0.      0.      0.      0.     0.0     0.0     0.0     0.0     0.0     0.0     0.0     0.0     0.0     0.0     0.0     0.0     0.0     0.0     0.0     0.0     0.0     0.0     0.0     0.0     0.0     0.0     0.0     0.0     0.0     0.0     0.0     0.0     0.0     0.0
 2025 015    86    0.01    0.01    0.01    0.03    13.1   0.002   0.013   0.028   0.013     0.1     0.2     0.1     0.0       2    0.00    0.00    0.00    0.00     0.0     0.0     0.0     0.0     0.0     0.0     0.0     0.0     0.0     0.0      0.      0.      0.      0.      0.      0.      0.      0.      0.      0.     0.0     0.0     0.0     0.0     0.0     0.0     0.0     0.0     0.0     0.0     0.0     0.0     0.0     0.0     0.0     0.0     0.0     0.0     0.0     0.0     0.0     0.0     0.0     0.0     0.0     0.0     0.0     0.0     0.0     0.0
 2025 016    87    0.01    0.01    0.01    0.03    13.1   0.002   0.013   0.028   0.013     0.1     0.2     0.1     0.0       2    0.00    0.00    0.00    0.00     0.0     0.0     0.0     0.0     0.0     0.0     0.0     0.0     0.0     0.0      0.      0.      0.      0.      0.      0.      0.      0.      0.      0.     0.0     0.0     0.0     0.0     0.0     0.0     0.0     0.0     0.0     0.0     0.0     0.0     0.0     0.0     0.0     0.0     0.0     0.0     0.0     0.0     0.0     0.0     0.0     0.0     0.0     0.0     0.0     0.0     0.0     0.0
 2025 017    88    0.01    0.01    0.01    0.03    13.1   0.002   0.013   0.028   0.013     0.1     0.2     0.1     0.0       2    0.00    0.00    0.00    0.00     0.0     0.0     0.0     0.0     0.0     0.0     0.0     0.0     0.0     0.0      0.      0.      0.      0.      0.      0.      0.      0.      0.      0.     0.0     0.0     0.0     0.0     0.0     0.0     0.0     0.0     0.0     0.0     0.0     0.0     0.0     0.0     0.0     0.0     0.0     0.0     0.0     0.0     0.0     0.0     0.0     0.0     0.0     0.0     0.0     0.0     0.0     0.0
 2025 018    89    0.01    0.01    0.01    0.03    13.1   0.002   0.013   0.028   0.013     0.1     0.2     0.1     0.0       2    0.00    0.00    0.00    0.00     0.0     0.0     0.0     0.0     0.0     0.0     0.0     0.0     0.0     0.0      0.      0.      0.      0.      0.      0.      0.      0.      0.      0.     0.0     0.0     0.0     0.0     0.0     0.0     0.0     0.0     0.0     0.0     0.0     0.0     0.0     0.0     0.0     0.0     0.0     0.0     0.0     0.0     0.0     0.0     0.0     0.0     0.0     0.0     0.0     0.0     0.0     0.0
 2025 019    90    0.01    0.01    0.01    0.03    13.1   0.002   0.013   0.028   0.013     0.1     0.2     0.1     0.0       1    0.00    0.00    0.00    0.00     0.0     0.0     0.0     0.0     0.0     0.0     0.0     0.0     0.0     0.0      0.      0.      0.      0.      0.      0.      0.      0.      0.      0.     0.0     0.0     0.0     0.0     0.0     0.0     0.0     0.0     0.0     0.0     0.0     0.0     0.0     0.0     0.0     0.0     0.0     0.0     0.0     0.0     0.0     0.0     0.0     0.0     0.0     0.0     0.0     0.0     0.0     0.0
 2025 020    91    0.01    0.01    0.01    0.03    13.1   0.002   0.013   0.028   0.013     0.1     0.2     0.1     0.0       1    0.00    0.00    0.00    0.00     0.0     0.0     0.0     0.0     0.0     0.0     0.0     0.0     0.0     0.0      0.      0.      0.      0.      0.      0.      0.      0.      0.      0.     0.0     0.0     0.0     0.0     0.0     0.0     0.0     0.0     0.0     0.0     0.0     0.0     0.0     0.0     0.0     0.0     0.0     0.0     0.0     0.0     0.0     0.0     0.0     0.0     0.0     0.0     0.0     0.0     0.0     0.0
 2025 021    92    0.01    0.01    0.01    0.03    13.1   0.002   0.013   0.028   0.013     0.1     0.2     0.1     0.0       1    0.00    0.00    0.00    0.00     0.0     0.0     0.0     0.0     0.0     0.0     0.0     0.0     0.0     0.0      0.      0.      0.      0.      0.      0.      0.      0.      0.      0.     0.0     0.0     0.0     0.0     0.0     0.0     0.0     0.0     0.0     0.0     0.0     0.0     0.0     0.0     0.0     0.0     0.0     0.0     0.0     0.0     0.0     0.0     0.0     0.0     0.0     0.0     0.0     0.0     0.0     0.0
 2025 022    93    0.01    0.01    0.01    0.03    13.1   0.002   0.013   0.028   0.013     0.1     0.2     0.1     0.0       1    0.00    0.00    0.00    0.00     0.0     0.0     0.0     0.0     0.0     0.0     0.0     0.0     0.0     0.0      0.      0.      0.      0.      0.      0.      0.      0.      0.      0.     0.0     0.0     0.0     0.0     0.0     0.0     0.0     0.0     0.0     0.0     0.0     0.0     0.0     0.0     0.0     0.0     0.0     0.0     0.0     0.0     0.0     0.0     0.0     0.0     0.0     0.0     0.0     0.0     0.0     0.0
 2025 023    94    0.01    0.01    0.01    0.03    13.1   0.002   0.013   0.028   0.013     0.1     0.2     0.1     0.0       1    0.00    0.00    0.00    0.00     0.0     0.0     0.0     0.0     0.0     0.0     0.0     0.0     0.0     0.0      0.      0.      0.      0.      0.      0.      0.      0.      0.      0.     0.0     0.0     0.0     0.0     0.0     0.0     0.0     0.0     0.0     0.0     0.0     0.0     0.0     0.0     0.0     0.0     0.0     0.0     0.0     0.0     0.0     0.0     0.0     0.0     0.0     0.0     0.0     0.0     0.0     0.0
 2025 024    95    0.01    0.01    0.01    0.03    13.1   0.002   0.013   0.028   0.013     0.0     0.1     0.0     0.0       1    0.00    0.00    0.00    0.00     0.0     0.0     0.0     0.0     0.0     0.0     0.0     0.0     0.0     0.0      0.      0.      0.      0.      0.      0.      0.      0.      0.      0.     0.0     0.0     0.0     0.0     0.0     0.0     0.0     0.0     0.0     0.0     0.0     0.0     0.0     0.0     0.0     0.0     0.0     0.0     0.0     0.0     0.0     0.0     0.0     0.0     0.0     0.0     0.0     0.0     0.0     0.0
 2025 025    96    0.01    0.01    0.01    0.03    13.1   0.002   0.013   0.028   0.013     0.1     0.1     0.0     0.0       1    0.00    0.00    0.00    0.00     0.0     0.0     0.0     0.0     0.0     0.0     0.0     0.0     0.0     0.0      0.      0.      0.      0.      0.      0.      0.      0.      0.      0.     0.0     0.0     0.0     0.0     0.0     0.0     0.0     0.0     0.0     0.0     0.0     0.0     0.0     0.0     0.0     0.0     0.0     0.0     0.0     0.0     0.0     0.0     0.0     0.0     0.0     0.0     0.0     0.0     0.0     0.0
 2025 026    97    0.01    0.01    0.01    0.03    13.1   0.002   0.013   0.028   0.013     0.1     0.2     0.1     0.0       1    0.00    0.00    0.00    0.00     0.0     0.0     0.0     0.0     0.0     0.0     0.0     0.0     0.0     0.0      0.      0.      0.      0.      0.      0.      0.      0.      0.      0.     0.0     0.0     0.0     0.0     0.0     0.0     0.0     0.0     0.0     0.0     0.0     0.0     0.0     0.0     0.0     0.0     0.0     0.0     0.0     0.0     0.0     0.0     0.0     0.0     0.0     0.0     0.0     0.0     0.0     0.0
 2025 027    98    0.01    0.01    0.01    0.03    13.1   0.002   0.013   0.028   0.013     0.1     0.2     0.1     0.0       1    0.00    0.00    0.00    0.00     0.0     0.0     0.0     0.0     0.0     0.0     0.0     0.0     0.0     0.0      0.      0.      0.      0.      0.      0.      0.      0.      0.      0.     0.0     0.0     0.0     0.0     0.0     0.0     0.0     0.0     0.0     0.0     0.0     0.0     0.0     0.0     0.0     0.0     0.0     0.0     0.0     0.0     0.0     0.0     0.0     0.0     0.0     0.0     0.0     0.0     0.0     0.0
 2025 028    99    0.01    0.01    0.01    0.03    13.1   0.002   0.013   0.028   0.013     0.0     0.0     0.0     0.0       1    0.00    0.00    0.00    0.00     0.0     0.0     0.0     0.0     0.0     0.0     0.0     0.0     0.0     0.0      0.      0.      0.      0.      0.      0.      0.      0.      0.      0.     0.0     0.0     0.0     0.0     0.0     0.0     0.0     0.0     0.0     0.0     0.0     0.0     0.0     0.0     0.0     0.0     0.0     0.0     0.0     0.0     0.0     0.0     0.0     0.0     0.0     0.0     0.0     0.0     0.0     0.0
 2025 029   100    0.01    0.01    0.01    0.03    13.1   0.002   0.013   0.028   0.013     0.0     0.0     0.0     0.1       1    0.01    0.00    0.09    0.00     0.0     0.0     0.0     0.0     0.0     0.0     0.0     0.0     0.0     0.0      0.      0.      0.      0.      0.      0.      0.      0.      0.      0.     0.0     0.0     0.0     0.0     0.0     0.0     0.0     0.0     0.0     0.0     0.0     0.0     0.0     0.0     0.0     0.0     0.0     0.0     0.0     0.0     0.0     0.0     0.0     0.0     0.0     0.0     0.0     0.0     0.0     0.0
 2025 030   101    0.01    0.01    0.01    0.03    13.1   0.002   0.013   0.028   0.013     0.0     0.0     0.0     0.2       2    0.01    0.00    0.15    0.00     0.0     0.0     0.0     0.0     0.0     0.0     0.0     0.0     0.0     0.0      0.      0.      0.      0.      0.      0.      0.      0.      0.      0.     0.0     0.0     0.0     0.0     0.0     0.0     0.0     0.0     0.0     0.0     0.0     0.0     0.0     0.0     0.0     0.0     0.0     0.0     0.0     0.0     0.0     0.0     0.0     0.0     0.0     0.0     0.0     0.0     0.0     0.0
 2025 031   102    0.01    0.01    0.01    0.03    13.1   0.002   0.013   0.029   0.013     0.0     0.1     0.0     0.6       2    0.03    0.00    0.53    0.01     0.0     0.0     0.0     0.0     0.0     0.0     0.0     0.0     0.0     0.0      0.      0.      0.      0.      0.      0.      0.      0.      0.      0.     0.0     0.0     0.0     0.0     0.0     0.0     0.0     0.0     0.0     0.0     0.0     0.0     0.0     0.0     0.0     0.0     0.0     0.0     0.0     0.0     0.0     0.0     0.0     0.0     0.0     0.0     0.0     0.0     0.0     0.0
 2025 032   103    0.01    0.01    0.01    0.03    13.1   0.002   0.013   0.030   0.013     0.1     0.1     0.0     0.7       2    0.05    0.00    0.70    0.02     0.0     0.0     0.0     0.0     0.0     0.0     0.0     0.0     0.0     0.0      0.      0.      0.      0.      0.      0.      0.      0.      0.      0.     0.0     0.0     0.0     0.0     0.0     0.0     0.0     0.0     0.0     0.0     0.0     0.0     0.0     0.0     0.0     0.0     0.0     0.0     0.0     0.0     0.0     0.0     0.0     0.0     0.0     0.0     0.0     0.0     0.0     0.0
 2025 033   104    0.01    0.01    0.01    0.03    13.1   0.002   0.013   0.030   0.013     0.1     0.2     0.0     0.3       2    0.02    0.00    0.27    0.01     0.0     0.0     0.0     0.0     0.0     0.0     0.0     0.0     0.0     0.0      0.      0.      0.      0.      0.      0.      0.      0.      0.      0.     0.0     0.0     0.0     0.0     0.0     0.0     0.0     0.0     0.0     0.0     0.0     0.0     0.0     0.0     0.0     0.0     0.0     0.0     0.0     0.0     0.0     0.0     0.0     0.0     0.0     0.0     0.0     0.0     0.0     0.0
 2025 034   105    0.01    0.01    0.01    0.03    13.1   0.002   0.013   0.030   0.013     0.1     0.2     0.1     0.0       2    0.00    0.00    0.04    0.00     0.0     0.0     0.0     0.0     0.0     0.0     0.0     0.0     0.0     0.0      0.      0.      0.      0.      0.      0.      0.      0.      0.      0.     0.0     0.0     0.0     0.0     0.0     0.0     0.0     0.0     0.0     0.0     0.0     0.0     0.0     0.0     0.0     0.0     0.0     0.0     0.0     0.0     0.0     0.0     0.0     0.0     0.0     0.0     0.0     0.0     0.0     0.0
 2025 035   106    0.01    0.01    0.01    0.03    13.1   0.002   0.013   0.030   0.013     0.1     0.2     0.1     0.0       1    0.00    0.00    0.00    0.00     0.0     0.0     0.0     0.0     0.0     0.0     0.0     0.0     0.0     0.0      0.      0.      0.      0.      0.      0.      0.      0.      0.      0.     0.0     0.0     0.0     0.0     0.0     0.0     0.0     0.0     0.0     0.0     0.0     0.0     0.0     0.0     0.0     0.0     0.0     0.0     0.0     0.0     0.0     0.0     0.0     0.0     0.0     0.0     0.0     0.0     0.0     0.0
 2025 036   107    0.01    0.01    0.01    0.03    13.1   0.002   0.013   0.030   0.013     0.1     0.2     0.1     0.0       1    0.00    0.00    0.00    0.00     0.0     0.0     0.0     0.0     0.0     0.0     0.0     0.0     0.0     0.0      0.      0.      0.      0.      0.      0.      0.      0.      0.      0.     0.0     0.0     0.0     0.0     0.0     0.0     0.0     0.0     0.0     0.0     0.0     0.0     0.0     0.0     0.0     0.0     0.0     0.0     0.0     0.0     0.0     0.0     0.0     0.0     0.0     0.0     0.0     0.0     0.0     0.0
 2025 037   108    0.01    0.01    0.01    0.03    13.1   0.002   0.013   0.030   0.013     0.1     0.2     0.1     0.0       1    0.00    0.00    0.00    0.00     0.0     0.0     0.0     0.0     0.0     0.0     0.0     0.0     0.0     0.0      0.      0.      0.      0.      0.      0.      0.      0.      0.      0.     0.0     0.0     0.0     0.0     0.0     0.0     0.0     0.0     0.0     0.0     0.0     0.0     0.0     0.0     0.0     0.0     0.0     0.0     0.0     0.0     0.0     0.0     0.0     0.0     0.0     0.0     0.0     0.0     0.0     0.0
 2025 038   109    0.01    0.01    0.01    0.03    13.1   0.002   0.013   0.030   0.013     0.1     0.2     0.1     0.0       1    0.00    0.00    0.00    0.00     0.0     0.0     0.0     0.0     0.0     0.0     0.0     0.0     0.0     0.0      0.      0.      0.      0.      0.      0.      0.      0.      0.      0.     0.0     0.0     0.0     0.0     0.0     0.0     0.0     0.0     0.0     0.0     0.0     0.0     0.0     0.0     0.0     0.0     0.0     0.0     0.0     0.0     0.0     0.0     0.0     0.0     0.0     0.0     0.0     0.0     0.0     0.0
 2025 039   110    0.01    0.01    0.01    0.03    13.1   0.002   0.013   0.030   0.013     0.1     0.2     0.1     0.0       1    0.00    0.00    0.00    0.00     0.0     0.0     0.0     0.0     0.0     0.0     0.0     0.0     0.0     0.0      0.      0.      0.      0.      0.      0.      0.      0.      0.      0.     0.0     0.0     0.0     0.0     0.0     0.0     0.0     0.0     0.0     0.0     0.0     0.0     0.0     0.0     0.0     0.0     0.0     0.0     0.0     0.0     0.0     0.0     0.0     0.0     0.0     0.0     0.0     0.0     0.0     0.0
 2025 040   111    0.01    0.01    0.01    0.03    13.1   0.002   0.013   0.030   0.013     0.1     0.2     0.1     0.0       1    0.00    0.00    0.00    0.00     0.0     0.0     0.0     0.0     0.0     0.0     0.0     0.0     0.0     0.0      0.      0.      0.      0.      0.      0.      0.      0.      0.      0.     0.0     0.0     0.0     0.0     0.0     0.0     0.0     0.0     0.0     0.0     0.0     0.0     0.0     0.0     0.0     0.0     0.0     0.0     0.0     0.0     0.0     0.0     0.0     0.0     0.0     0.0     0.0     0.0     0.0     0.0
 2025 041   112    0.01    0.01    0.01    0.03    13.1   0.002   0.013   0.030   0.013     0.1     0.2     0.1     0.0       1    0.00    0.00    0.00    0.00     0.0     0.0     0.0     0.0     0.0     0.0     0.0     0.0     0.0     0.0      0.      0.      0.      0.      0.      0.      0.      0.      0.      0.     0.0     0.0     0.0     0.0     0.0     0.0     0.0     0.0     0.0     0.0     0.0     0.0     0.0     0.0     0.0     0.0     0.0     0.0     0.0     0.0     0.0     0.0     0.0     0.0     0.0     0.0     0.0     0.0     0.0     0.0
 2025 042   113    0.01    0.01    0.01    0.03    13.1   0.002   0.013   0.030   0.013     0.1     0.2     0.1     0.0       1    0.00    0.00    0.00    0.00     0.0     0.0     0.0     0.0     0.0     0.0     0.0     0.0     0.0     0.0      0.      0.      0.      0.      0.      0.      0.      0.      0.      0.     0.0     0.0     0.0     0.0     0.0     0.0     0.0     0.0     0.0     0.0     0.0     0.0     0.0     0.0     0.0     0.0     0.0     0.0     0.0     0.0     0.0     0.0     0.0     0.0     0.0     0.0     0.0     0.0     0.0     0.0
 2025 043   114    0.01    0.01    0.01    0.03    13.1   0.002   0.013   0.030   0.013     0.0     0.0     0.0     0.0       1    0.00    0.00    0.00    0.00     0.0     0.0     0.0     0.0     0.0     0.0     0.0     0.0     0.0     0.0      0.      0.      0.      0.      0.      0.      0.      0.      0.      0.     0.0     0.0     0.0     0.0     0.0     0.0     0.0     0.0     0.0     0.0     0.0     0.0     0.0     0.0     0.0     0.0     0.0     0.0     0.0     0.0     0.0     0.0     0.0     0.0     0.0     0.0     0.0     0.0     0.0     0.0
 2025 044   115    0.01    0.01    0.01    0.03    13.1   0.002   0.013   0.030   0.013     0.0     0.0     0.0     0.0       1    0.00    0.00    0.00    0.00     0.0     0.0     0.0     0.0     0.0     0.0     0.0     0.0     0.0     0.0      0.      0.      0.      0.      0.      0.      0.      0.      0.      0.     0.0     0.0     0.0     0.0     0.0     0.0     0.0     0.0     0.0     0.0     0.0     0.0     0.0     0.0     0.0     0.0     0.0     0.0     0.0     0.0     0.0     0.0     0.0     0.0     0.0     0.0     0.0     0.0     0.0     0.0
 2025 045   116    0.01    0.01    0.01    0.03    13.1   0.002   0.013   0.030   0.013     0.0     0.0     0.0     0.0       1    0.00    0.00    0.00    0.00     0.0     0.0     0.0     0.0     0.0     0.0     0.0     0.0     0.0     0.0      0.      0.      0.      0.      0.      0.      0.      0.      0.      0.     0.0     0.0     0.0     0.0     0.0     0.0     0.0     0.0     0.0     0.0     0.0     0.0     0.0     0.0     0.0     0.0     0.0     0.0     0.0     0.0     0.0     0.0     0.0     0.0     0.0     0.0     0.0     0.0     0.0     0.0
 2025 046   117    0.01    0.01    0.01    0.03    13.1   0.002   0.013   0.030   0.013     0.0     0.0     0.0     0.0       1    0.00    0.00    0.00    0.00     0.0     0.0     0.0     0.0     0.0     0.0     0.0     0.0     0.0     0.0      0.      0.      0.      0.      0.      0.      0.      0.      0.      0.     0.0     0.0     0.0     0.0     0.0     0.0     0.0     0.0     0.0     0.0     0.0     0.0     0.0     0.0     0.0     0.0     0.0     0.0     0.0     0.0     0.0     0.0     0.0     0.0     0.0     0.0     0.0     0.0     0.0     0.0
 2025 047   118    0.01    0.01    0.01    0.03    13.1   0.002   0.013   0.030   0.013     0.0     0.1     0.0     0.0       1    0.00    0.00    0.00    0.00     0.0     0.0     0.0     0.0     0.0     0.0     0.0     0.0     0.0     0.0      0.      0.      0.      0.      0.      0.      0.      0.      0.      0.     0.0     0.0     0.0     0.0     0.0     0.0     0.0     0.0     0.0     0.0     0.0     0.0     0.0     0.0     0.0     0.0     0.0     0.0     0.0     0.0     0.0     0.0     0.0     0.0     0.0     0.0     0.0     0.0     0.0     0.0
 2025 048   119    0.01    0.01    0.01    0.03    13.1   0.002   0.013   0.030   0.013     0.1     0.1     0.0     0.0       1    0.00    0.00    0.00    0.00     0.0     0.0     0.0     0.0     0.0     0.0     0.0     0.0     0.0     0.0      0.      0.      0.      0.      0.      0.      0.      0.      0.      0.     0.0     0.0     0.0     0.0     0.0     0.0     0.0     0.0     0.0     0.0     0.0     0.0     0.0     0.0     0.0     0.0     0.0     0.0     0.0     0.0     0.0     0.0     0.0     0.0     0.0     0.0     0.0     0.0     0.0     0.0
 2025 049   120    0.01    0.01    0.01    0.03    13.1   0.002   0.013   0.030   0.013     0.1     0.1     0.0     0.0       0    0.00    0.00    0.00    0.00     0.0     0.0     0.0     0.0     0.0     0.0     0.0     0.0     0.0     0.0      0.      0.      0.      0.      0.      0.      0.      0.      0.      0.     0.0     0.0     0.0     0.0     0.0     0.0     0.0     0.0     0.0     0.0     0.0     0.0     0.0     0.0     0.0     0.0     0.0     0.0     0.0     0.0     0.0     0.0     0.0     0.0     0.0     0.0     0.0     0.0     0.0     0.0
 2025 050   121    0.01    0.01    0.01    0.03    13.1   0.002   0.013   0.030   0.013     0.1     0.2     0.0     0.0       0    0.00    0.00    0.00    0.00     0.0     0.0     0.0     0.0     0.0     0.0     0.0     0.0     0.0     0.0      0.      0.      0.      0.      0.      0.      0.      0.      0.      0.     0.0     0.0     0.0     0.0     0.0     0.0     0.0     0.0     0.0     0.0     0.0     0.0     0.0     0.0     0.0     0.0     0.0     0.0     0.0     0.0     0.0     0.0     0.0     0.0     0.0     0.0     0.0     0.0     0.0     0.0
 2025 051   122    0.01    0.01    0.01    0.03    13.1   0.002   0.013   0.030   0.013     0.1     0.2     0.0     0.0       0    0.00    0.00    0.00    0.00     0.0     0.0     0.0     0.0     0.0     0.0     0.0     0.0     0.0     0.0      0.      0.      0.      0.      0.      0.      0.      0.      0.      0.     0.0     0.0     0.0     0.0     0.0     0.0     0.0     0.0     0.0     0.0     0.0     0.0     0.0     0.0     0.0     0.0     0.0     0.0     0.0     0.0     0.0     0.0     0.0     0.0     0.0     0.0     0.0     0.0     0.0     0.0
 2025 052   123    0.01    0.01    0.01    0.03    13.1   0.002   0.013   0.030   0.013     0.1     0.2     0.0     0.0       0    0.00    0.00    0.00    0.00     0.0     0.0     0.0     0.0     0.0     0.0     0.0     0.0     0.0     0.0      0.      0.      0.      0.      0.      0.      0.      0.      0.      0.     0.0     0.0     0.0     0.0     0.0     0.0     0.0     0.0     0.0     0.0     0.0     0.0     0.0     0.0     0.0     0.0     0.0     0.0     0.0     0.0     0.0     0.0     0.0     0.0     0.0     0.0     0.0     0.0     0.0     0.0
 2025 053   124    0.01    0.01    0.01    0.03    13.1   0.002   0.013   0.030   0.013     0.1     0.2     0.0     0.0       0    0.00    0.00    0.00    0.00     0.0     0.0     0.0     0.0     0.0     0.0     0.0     0.0     0.0     0.0      0.      0.      0.      0.      0.      0.      0.      0.      0.      0.     0.0     0.0     0.0     0.0     0.0     0.0     0.0     0.0     0.0     0.0     0.0     0.0     0.0     0.0     0.0     0.0     0.0     0.0     0.0     0.0     0.0     0.0     0.0     0.0     0.0     0.0     0.0     0.0     0.0     0.0
 2025 054   125    0.01    0.01    0.01    0.03    13.1   0.002   0.013   0.030   0.013     0.1     0.2     0.0     0.0       0    0.00    0.00    0.00    0.00     0.0     0.0     0.0     0.0     0.0     0.0     0.0     0.0     0.0     0.0      0.      0.      0.      0.      0.      0.      0.      0.      0.      0.     0.0     0.0     0.0     0.0     0.0     0.0     0.0     0.0     0.0     0.0     0.0     0.0     0.0     0.0     0.0     0.0     0.0     0.0     0.0     0.0     0.0     0.0     0.0     0.0     0.0     0.0     0.0     0.0     0.0     0.0
 2025 055   126    0.01    0.01    0.01    0.03    13.1   0.002   0.013   0.030   0.013     0.1     0.1     0.0     0.0       0    0.00    0.00    0.00    0.00     0.0     0.0     0.0     0.0     0.0     0.0     0.0     0.0     0.0     0.0      0.      0.      0.      0.      0.      0.      0.      0.      0.      0.     0.0     0.0     0.0     0.0     0.0     0.0     0.0     0.0     0.0     0.0     0.0     0.0     0.0     0.0     0.0     0.0     0.0     0.0     0.0     0.0     0.0     0.0     0.0     0.0     0.0     0.0     0.0     0.0     0.0     0.0
 2025 056   127    0.01    0.01    0.01    0.03    13.1   0.002   0.013   0.030   0.013     0.1     0.1     0.0     0.0       1    0.00    0.00    0.00    0.00     0.0     0.0     0.0     0.0     0.0     0.0     0.0     0.0     0.0     0.0      0.      0.      0.      0.      0.      0.      0.      0.      0.      0.     0.0     0.0     0.0     0.0     0.0     0.0     0.0     0.0     0.0     0.0     0.0     0.0     0.0     0.0     0.0     0.0     0.0     0.0     0.0     0.0     0.0     0.0     0.0     0.0     0.0     0.0     0.0     0.0     0.0     0.0
 2025 057   128    0.01    0.01    0.01    0.03    13.1   0.002   0.013   0.030   0.013     0.1     0.1     0.0     0.0       1    0.00    0.00    0.00    0.00     0.0     0.0     0.0     0.0     0.0     0.0     0.0     0.0     0.0     0.0      0.      0.      0.      0.      0.      0.      0.      0.      0.      0.     0.0     0.0     0.0     0.0     0.0     0.0     0.0     0.0     0.0     0.0     0.0     0.0     0.0     0.0     0.0     0.0     0.0     0.0     0.0     0.0     0.0     0.0     0.0     0.0     0.0     0.0     0.0     0.0     0.0     0.0
 2025 058   129    0.01    0.01    0.01    0.03    13.1   0.002   0.013   0.030   0.013     0.1     0.1     0.0     0.0       6    0.00    0.01    0.00    0.00     0.0     0.0     0.0     0.0     0.0     0.0     0.0     0.0     0.0     0.0      1.      1.      1.      0.      0.      0.      0.      0.      0.      0.     0.0     0.0     0.0     0.0     0.0     0.0     0.0     0.0     0.0     0.0     0.0     0.0     0.0     0.0     0.0     0.0     0.0     0.0     0.0     0.0     0.0     0.0     0.0     0.0     0.0     0.0     0.0     0.0     0.0     0.0
 2025 059   130    0.01    0.01    0.01    0.03    13.1   0.002   0.013   0.030   0.013     0.0     0.1     0.0     0.0       6    0.00    0.01    0.00    0.00     0.0     0.0     0.0     0.0     0.0     0.0     0.0     0.0     0.0     0.0      1.      1.      1.      0.      0.      0.      0.      0.      1.      1.     0.0     0.0     0.0     0.0     0.0     0.0     0.0     0.0     0.0     0.0     0.0     0.0     0.0     0.0     0.0     0.0     0.0     0.0     0.0     0.0     0.0     0.0     0.0     0.0     0.0     0.0     0.0     0.0     0.0     0.0
 2025 060   131    0.01    0.01    0.01    0.03    13.1   0.002   0.013   0.030   0.013     0.0     0.1     0.0     0.0       5    0.00    0.01    0.00    0.00     0.0     0.0     0.0     0.0     0.0     0.0     0.0     0.0     0.0     0.0      0.      1.      0.      0.      0.      0.      0.      0.      1.      1.     0.0     0.0     0.0     0.0     0.0     0.0     0.0     0.0     0.0     0.0     0.0     0.0     0.0     0.0     0.0     0.0     0.0     0.0     0.0     0.0     0.0     0.0     0.0     0.0     0.0     0.0     0.0     0.0     0.0     0.0
 2025 061   132    0.01    0.01    0.01    0.03    13.1   0.002   0.013   0.030   0.013     0.1     0.1     0.0     0.0       5    0.00    0.00    0.00    0.00     0.0     0.0     0.0     0.0     0.0     0.0     0.0     0.0     0.0     0.0      0.      1.      0.      0.      0.      0.      0.      0.      0.      1.     0.0     0.0     0.0     0.0     0.0     0.0     0.0     0.0     0.0     0.0     0.0     0.0     0.0     0.0     0.0     0.0     0.0     0.0     0.0     0.0     0.0     0.0     0.0     0.0     0.0     0.0     0.0     0.0     0.0     0.0
 2025 062   133    0.01    0.01    0.01    0.03    13.1   0.002   0.013   0.030   0.013     0.1     0.1     0.0     0.0       4    0.00    0.00    0.00    0.00     0.0     0.0     0.0     0.0     0.0     0.0     0.0     0.0     0.0     0.0      0.      0.      0.      0.      0.      0.      0.      0.      0.      0.     0.0     0.0     0.0     0.0     0.0     0.0     0.0     0.0     0.0     0.0     0.0     0.0     0.0     0.0     0.0     0.0     0.0     0.0     0.0     0.0     0.0     0.0     0.0     0.0     0.0     0.0     0.0     0.0     0.0     0.0
 2025 063   134    0.01    0.01    0.01    0.03    13.1   0.002   0.013   0.030   0.013     0.1     0.1     0.0     0.0       3    0.00    0.00    0.00    0.00     0.0     0.0     0.0     0.0     0.0     0.0     0.0     0.0     0.0     0.0      0.      0.      0.      0.      0.      0.      0.      0.      0.      0.     0.0     0.0     0.0     0.0     0.0     0.0     0.0     0.0     0.0     0.0     0.0     0.0     0.0     0.0     0.0     0.0     0.0     0.0     0.0     0.0     0.0     0.0     0.0     0.0     0.0     0.0     0.0     0.0     0.0     0.0
 2025 064   135    0.01    0.01    0.01    0.03    13.1   0.002   0.013   0.030   0.013     0.1     0.1     0.0     0.0       3    0.00    0.00    0.00    0.00     0.0     0.0     0.0     0.0     0.0     0.0     0.0     0.0     0.0     0.0      0.      0.      0.      0.      0.      0.      0.      0.      0.      0.     0.0     0.0     0.0     0.0     0.0     0.0     0.0     0.0     0.0     0.0     0.0     0.0     0.0     0.0     0.0     0.0     0.0     0.0     0.0     0.0     0.0     0.0     0.0     0.0     0.0     0.0     0.0     0.0     0.0     0.0
 2025 065   136    0.01    0.01    0.01    0.03    13.2   0.002   0.013   0.030   0.013     0.1     0.1     0.0     0.0       3    0.00    0.00    0.00    0.00     0.0     0.0     0.0     0.0     0.0     0.0     0.0     0.0     0.0     0.0      0.      0.      0.      0.      0.      0.      0.      0.      0.      0.     0.0     0.0     0.0     0.0     0.0     0.0     0.0     0.0     0.0     0.0     0.0     0.0     0.0     0.0     0.0     0.0     0.0     0.0     0.0     0.0     0.0     0.0     0.0     0.0     0.0     0.0     0.0     0.0     0.0     0.0
 2025 066   137    0.01    0.01    0.01    0.03    13.2   0.002   0.013   0.030   0.013     0.1     0.1     0.0     0.0       3    0.00    0.00    0.00    0.00     0.0     0.0     0.0     0.0     0.0     0.0     0.0     0.0     0.0     0.0      0.      0.      0.      0.      0.      0.      0.      0.      0.      0.     0.0     0.0     0.0     0.0     0.0     0.0     0.0     0.0     0.0     0.0     0.0     0.0     0.0     0.0     0.0     0.0     0.0     0.0     0.0     0.0     0.0     0.0     0.0     0.0     0.0     0.0     0.0     0.0     0.0     0.0
 2025 067   138    0.01    0.01    0.01    0.03    13.2   0.002   0.013   0.030   0.013     0.1     0.1     0.0     0.0       3    0.00    0.00    0.00    0.00     0.0     0.0     0.0     0.0     0.0     0.0     0.0     0.0     0.0     0.0      0.      0.      0.      0.      0.      0.      0.      0.      0.      0.     0.0     0.0     0.0     0.0     0.0     0.0     0.0     0.0     0.0     0.0     0.0     0.0     0.0     0.0     0.0     0.0     0.0     0.0     0.0     0.0     0.0     0.0     0.0     0.0     0.0     0.0     0.0     0.0     0.0     0.0
 2025 068   139    0.01    0.01    0.01    0.03    13.2   0.002   0.013   0.030   0.013     0.1     0.1     0.0     0.0       6    0.00    0.01    0.00    0.00     0.0     0.0     0.0     0.0     0.0     0.0     0.0     0.0     0.0     0.0      0.      1.      1.      0.      0.      0.      0.      0.      1.      1.     0.0     0.0     0.0     0.0     0.0     0.0     0.0     0.0     0.0     0.0     0.0     0.0     0.0     0.0     0.0     0.0     0.0     0.0     0.0     0.0     0.0     0.0     0.0     0.0     0.0     0.0     0.0     0.0     0.0     0.0
[...]
 2025 187   258    0.14    0.04    0.16    0.05   138.2   0.005   0.139   0.040   0.165     0.1     0.1     0.2     0.0     203    0.00    0.20    0.00    0.21     0.0     0.0     0.0     0.0     0.0     0.0     0.0     0.0     0.0     0.0     11.      8.     14.     13.     12.     11.     11.      9.     17.     38.     0.0     0.0     0.0     0.0     0.0     0.0     0.0     0.0     0.0     0.0     0.0     0.0     0.0     0.0     0.0     0.0     0.0     0.0     0.0     0.0     0.0     0.0     0.0     0.0     0.0     0.0     0.0     0.0     0.0     0.0
 2025 188   259    0.14    0.04    0.16    0.05   138.4   0.005   0.139   0.040   0.165     0.1     0.1     0.2     0.0     190    0.00    0.19    0.00    0.19     0.0     0.0     0.0     0.0     0.0     0.0     0.0     0.0     0.0     0.0      9.      7.     13.     12.     11.     10.     10.      9.     16.     36.     0.0     0.0     0.0     0.0     0.0     0.0     0.0     0.0     0.0     0.0     0.0     0.0     0.0     0.0     0.0     0.0     0.0     0.0     0.0     0.0     0.0     0.0     0.0     0.0     0.0     0.0     0.0     0.0     0.0     0.0
 2025 189   260    0.14    0.04    0.16    0.05   138.6   0.005   0.139   0.040   0.165     0.1     0.1     0.2     0.0     175    0.00    0.18    0.00    0.18     0.0     0.0     0.0     0.0     0.0     0.0     0.0     0.0     0.0     0.0     10.      6.     12.     11.     10.      9.      9.      8.     15.     33.     0.0     0.0     0.0     0.0     0.0     0.0     0.0     0.0     0.0     0.0     0.0     0.0     0.0     0.0     0.0     0.0     0.0     0.0     0.0     0.0     0.0     0.0     0.0     0.0     0.0     0.0     0.0     0.0     0.0     0.0
 2025 190   261    0.14    0.04    0.16    0.05   138.8   0.005   0.139   0.040   0.165     0.1     0.0     0.2     0.0     169    0.00    0.17    0.00    0.17     0.0     0.0     0.0     0.0     0.0     0.0     0.0     0.0     0.0     0.0     16.      6.     11.     10.      9.      9.      9.      7.     14.     31.     0.0     0.0     0.0     0.0     0.0     0.0     0.0     0.0     0.0     0.0     0.0     0.0     0.0     0.0     0.0     0.0     0.0     0.0     0.0     0.0     0.0     0.0     0.0     0.0     0.0     0.0     0.0     0.0     0.0     0.0
 2025 191   262    0.14    0.04    0.16    0.05   138.9   0.005   0.139   0.040   0.165     0.1     0.0     0.2     0.0     154    0.00    0.15    0.00    0.16     0.0     0.0     0.0     0.0     0.0     0.0     0.0     0.0     0.0     0.0     14.      5.     10.      9.      8.      8.      8.      7.     13.     28.     0.0     0.0     0.0     0.0     0.0     0.0     0.0     0.0     0.0     0.0     0.0     0.0     0.0     0.0     0.0     0.0     0.0     0.0     0.0     0.0     0.0     0.0     0.0     0.0     0.0     0.0     0.0     0.0     0.0     0.0
 2025 192   263    0.14    0.04    0.16    0.05   139.1   0.005   0.140   0.040   0.166     0.1     0.0     0.2     0.0     148    0.00    0.15    0.00    0.15     0.0     0.0     0.0     0.0     0.0     0.0     0.0     0.0     0.0     0.0     13.      5.      9.      9.      8.      8.      7.      6.     12.     27.     0.0     0.0     0.0     0.0     0.0     0.0     0.0     0.0     0.0     0.0     0.0     0.0     0.0     0.0     0.0     0.0     0.0     0.0     0.0     0.0     0.0     0.0     0.0     0.0     0.0     0.0     0.0     0.0     0.0     0.0
 2025 193   264    0.14    0.04    0.16    0.05   139.2   0.005   0.140   0.040   0.166     0.1     0.0     0.2     0.0     144    0.00    0.14    0.00    0.15     0.0     0.0     0.0     0.0     0.0     0.0     0.0     0.0     0.0     0.0     12.      5.      9.      9.      8.      7.      7.      6.     12.     26.     0.0     0.0     0.0     0.0     0.0     0.0     0.0     0.0     0.0     0.0     0.0     0.0     0.0     0.0     0.0     0.0     0.0     0.0     0.0     0.0     0.0     0.0     0.0     0.0     0.0     0.0     0.0     0.0     0.0     0.0
 2025 194   265    0.14    0.04    0.16    0.05   139.4   0.005   0.140   0.040   0.166     0.1     0.0     0.2     0.0     143    0.00    0.14    0.00    0.15     0.0     0.0     0.0     0.0     0.0     0.0     0.0     0.0     0.0     0.0     11.      5.      9.      9.      8.      8.      7.      6.     12.     26.     0.0     0.0     0.0     0.0     0.0     0.0     0.0     0.0     0.0     0.0     0.0     0.0     0.0     0.0     0.0     0.0     0.0     0.0     0.0     0.0     0.0     0.0     0.0     0.0     0.0     0.0     0.0     0.0     0.0     0.0
 2025 195   266    0.14    0.04    0.16    0.05   139.5   0.005   0.140   0.040   0.166     0.1     0.0     0.2     0.0     154    0.00    0.15    0.00    0.16     0.0     0.0     0.0     0.0     0.0     0.0     0.0     0.0     0.0     0.0     11.      5.     10.     10.      9.      8.      8.      7.     13.     28.     0.0     0.0     0.0     0.0     0.0     0.0     0.0     0.0     0.0     0.0     0.0     0.0     0.0     0.0     0.0     0.0     0.0     0.0     0.0     0.0     0.0     0.0     0.0     0.0     0.0     0.0     0.0     0.0     0.0     0.0
 2025 196   267    0.14    0.04    0.16    0.05   139.7   0.005   0.140   0.040   0.166     0.1     0.0     0.1     0.0     151    0.00    0.15    0.00    0.14     0.0     0.0     0.0     0.0     0.0     0.0     0.0     0.0     0.0     0.0      0.      5.     11.     10.      9.      9.      9.      7.     14.     30.     0.0     0.0     0.0     0.0     0.0     0.0     0.0     0.0     0.0     0.0     0.0     0.0     0.0     0.0     0.0     0.0     0.0     0.0     0.0     0.0     0.0     0.0     0.0     0.0     0.0     0.0     0.0     0.0     0.0     0.0
 2025 197   268    0.14    0.04    0.16    0.05   139.9   0.005   0.140   0.040   0.166     0.1     0.0     0.1     0.0     194    0.00    0.19    0.00    0.19     0.0     0.0     0.0     0.0     0.0     0.0     0.0     0.0     0.0     0.0     38.      6.     11.     10.      9.      9.      9.      7.     14.     32.     0.0     0.0     0.0     0.0     0.0     0.0     0.0     0.0     0.0     0.0     0.0     0.0     0.0     0.0     0.0     0.0     0.0     0.0     0.0     0.0     0.0     0.0     0.0     0.0     0.0     0.0     0.0     0.0     0.0     0.0
 2025 198   269    0.14    0.04    0.16    0.05   140.1   0.005   0.141   0.040   0.166     0.0     0.0     0.0     0.0     215    0.00    0.22    0.00    0.17     0.0     0.0     0.0     0.0     0.0     0.0     0.0     0.0     0.0     0.0     44.     25.     10.     10.      9.      9.      8.      7.     14.     32.     0.0     0.0     0.0     0.0     0.0     0.0     0.0     0.0     0.0     0.0     0.0     0.0     0.0     0.0     0.0     0.0     0.0     0.0     0.0     0.0     0.0     0.0     0.0     0.0     0.0     0.0     0.0     0.0     0.0     0.0
 2025 199   270    0.14    0.04    0.16    0.05   140.3   0.005   0.141   0.040   0.167     0.1     0.0     0.1     0.0     261    0.00    0.26    0.00    0.21     0.0     0.0     0.0     0.0     0.0     0.0     0.0     0.0     0.0     0.0     67.     54.     11.      9.      8.      8.      8.      7.     13.     31.     0.1     0.1     0.0     0.0     0.0     0.0     0.0     0.0     0.0     0.0     0.0     0.0     0.0     0.0     0.0     0.0     0.0     0.0     0.0     0.0     0.0     0.1     0.0     0.0     0.0     0.0     0.0     0.0     0.0     0.0
 2025 200   271    0.14    0.04    0.16    0.05   140.6   0.005   0.141   0.040   0.167     0.1     0.0     0.2     0.0     289    0.00    0.29    0.00    0.29     0.0     0.0     0.0     0.0     0.0     0.0     0.0     0.0     0.0     0.0     74.     79.     13.      9.      8.      8.      8.      6.     12.     30.     0.1     0.1     0.0     0.0     0.0     0.0     0.0     0.0     0.0     0.0     0.0     0.0     0.0     0.0     0.0     0.0     0.0     0.0     0.0     0.0     0.1     0.1     0.0     0.0     0.0     0.0     0.0     0.0     0.0     0.0
 2025 201   272    0.14    0.04    0.16    0.05   141.0   0.005   0.141   0.040   0.167     0.2     0.0     0.2     0.0     316    0.00    0.32    0.00    0.32     0.0     0.0     0.0     0.0     0.0     0.0     0.0     0.0     0.0     0.0     79.     97.     13.      9.      8.      8.      8.      7.     12.     31.     0.1     0.1     0.0     0.0     0.0     0.0     0.0     0.0     0.0     0.0     0.0     0.0     0.0     0.0     0.0     0.0     0.0     0.0     0.0     0.0     0.1     0.1     0.0     0.0     0.0     0.0     0.0     0.0     0.0     0.0
 2025 202   273    0.14    0.04    0.16    0.05   141.3   0.005   0.142   0.040   0.168     0.2     0.0     0.2     0.0     338    0.00    0.34    0.00    0.34     0.0     0.0     0.0     0.0     0.0     0.0     0.0     0.0     0.0     0.0     86.    111.     14.      9.      8.      8.      8.      7.     13.     32.     0.1     0.1     0.0     0.0     0.0     0.0     0.0     0.0     0.0     0.0     0.0     0.0     0.0     0.0     0.0     0.0     0.0     0.0     0.0     0.0     0.1     0.1     0.0     0.0     0.0     0.0     0.0     0.0     0.0     0.0
 2025 203   274    0.14    0.04    0.16    0.05   141.6   0.005   0.142   0.040   0.168     0.0     0.0     0.0     0.0     317    0.00    0.32    0.00    0.17     0.0     0.0     0.0     0.0     0.0     0.0     0.0     0.0     0.0     0.0     64.     94.     29.      9.      8.      8.      8.      7.     13.     32.     0.1     0.1     0.0     0.0     0.0     0.0     0.0     0.0     0.0     0.0     0.0     0.0     0.0     0.0     0.0     0.0     0.0     0.0     0.0     0.0     0.0     0.0     0.0     0.0     0.0     0.0     0.0     0.0     0.0     0.0
 2025 204   275    0.14    0.04    0.16    0.05   142.0   0.005   0.142   0.040   0.168     0.0     0.0     0.0     0.0     380    0.00    0.38    0.00    0.21     0.0     0.0     0.0     0.0     0.0     0.0     0.0     0.0     0.0     0.0     80.    114.     50.      9.      9.      8.      8.      7.     13.     34.     0.1     0.1     0.1     0.0     0.0     0.0     0.0     0.0     0.0     0.0     0.0     0.0     0.0     0.0     0.0     0.0     0.0     0.0     0.0     0.0     0.0     0.0     0.1     0.0     0.0     0.0     0.0     0.0     0.0     0.0
 2025 205   276    0.14    0.04    0.16    0.05   142.4   0.005   0.143   0.040   0.168     0.1     0.0     0.1     0.0     434    0.00    0.43    0.00    0.28     0.0     0.0     0.0     0.0     0.0     0.0     0.0     0.0     0.0     0.0    100.    139.     61.      9.      9.      8.      8.      7.     13.     34.     0.1     0.1     0.1     0.0     0.0     0.0     0.0     0.0     0.0     0.0     0.0     0.0     0.0     0.0     0.0     0.0     0.0     0.0     0.0     0.0     0.1     0.0     0.1     0.0     0.0     0.0     0.0     0.0     0.0     0.0
 2025 206   277    0.14    0.04    0.16    0.05   142.8   0.005   0.143   0.040   0.169     0.1     0.0     0.1     0.0     423    0.00    0.42    0.00    0.25     0.0     0.0     0.0     0.0     0.0     0.0     0.0     0.0     0.0     0.0     92.    132.     70.      9.      8.      8.      8.      7.     12.     33.     0.1     0.1     0.1     0.0     0.0     0.0     0.0     0.0     0.0     0.0     0.0     0.0     0.0     0.0     0.0     0.0     0.0     0.0     0.0     0.0     0.0     0.0     0.1     0.0     0.0     0.0     0.0     0.0     0.0     0.0
 2025 207   278    0.14    0.04    0.16    0.05   143.2   0.006   0.144   0.044   0.169     0.0     0.0     0.0     4.0     394    0.15    0.39    3.86    0.25     2.1     1.9     0.0     0.0     0.0     0.0     0.0     0.0     0.0     0.0     69.    122.     76.     12.      8.      7.      7.      6.     12.     32.     0.1     0.2     0.1     0.0     0.0     0.0     0.0     0.0     0.0     0.0     2.0     1.8     0.0     0.0     0.0     0.0     0.0     0.0     0.0     0.0     0.0     0.1     0.1     0.0     0.0     0.0     0.0     0.0     0.0     0.0
 2025 208   279    0.14    0.04    0.16    0.05   143.6   0.006   0.144   0.049   0.169     0.0     0.0     0.0     5.1     382    0.20    0.38    4.89    0.23     2.5     2.6     0.0     0.0     0.0     0.0     0.0     0.0     0.0     0.0     62.    106.     83.     18.      8.      7.      7.      6.     11.     31.     0.1     0.2     0.1     0.0     0.0     0.0     0.0     0.0     0.0     0.0     2.4     2.5     0.0     0.0     0.0     0.0     0.0     0.0     0.0     0.0     0.0     0.0     0.0     0.0     0.0     0.0     0.0     0.0     0.0     0.0
 2025 209   280    0.14    0.04    0.16    0.06   144.0   0.006   0.144   0.053   0.169     0.0     0.1     0.0     4.8     405    0.20    0.40    4.64    0.24     2.3     2.5     0.0     0.0     0.0     0.0     0.0     0.0     0.0     0.0     68.    109.     88.     26.      8.      7.      7.      6.     11.     32.     0.1     0.2     0.1     0.0     0.0     0.0     0.0     0.0     0.0     0.0     2.2     2.4     0.0     0.0     0.0     0.0     0.0     0.0     0.0     0.0     0.0     0.1     0.0     0.0     0.0     0.0     0.0     0.0     0.0     0.0
 2025 210   281    0.14    0.04    0.16    0.06   144.4   0.006   0.145   0.059   0.170     0.0     0.1     0.0     5.8     380    0.23    0.38    5.53    0.22     2.5     3.2     0.0     0.0     0.0     0.0     0.0     0.0     0.0     0.0     58.     90.     88.     34.      7.      7.      7.      6.     11.     31.     0.1     0.2     0.1     0.0     0.0     0.0     0.0     0.0     0.0     0.0     2.4     3.1     0.0     0.0     0.0     0.0     0.0     0.0     0.0     0.0     0.0     0.0     0.0     0.0     0.0     0.0     0.0     0.0     0.0     0.0
 2025 211   282    0.14    0.04    0.16    0.07   144.8   0.006   0.145   0.064   0.170     0.1     0.4     0.1     5.8     418    0.25    0.42    5.53    0.29     1.4     2.2     2.1     0.0     0.0     0.0     0.0     0.0     0.0     0.0     80.    108.     87.     34.      7.      7.      7.      6.     10.     30.     0.1     0.2     0.2     0.0     0.0     0.0     0.0     0.0     0.0     0.0     1.3     2.1     2.0     0.0     0.0     0.0     0.0     0.0     0.0     0.0     0.0     0.1     0.1     0.0     0.0     0.0     0.0     0.0     0.0     0.0
 2025 212   283    0.14    0.04    0.16    0.08   145.2   0.007   0.146   0.069   0.170     0.1     0.5     0.1     5.0     409    0.22    0.41    4.77    0.29     1.4     1.8     1.8     0.0     0.0     0.0     0.0     0.0     0.0     0.0     73.    112.     85.     34.      8.      7.      7.      6.     10.     29.     0.1     0.2     0.2     0.0     0.0     0.0     0.0     0.0     0.0     0.0     1.4     1.7     1.7     0.0     0.0     0.0     0.0     0.0     0.0     0.0     0.0     0.1     0.1     0.0     0.0     0.0     0.0     0.0     0.0     0.0
 2025 213   284    0.14    0.04    0.16    0.08   145.6   0.007   0.146   0.072   0.170     0.2     0.9     0.1     3.7     397    0.17    0.40    3.51    0.30     1.0     1.3     1.4     0.0     0.0     0.0     0.0     0.0     0.0     0.0     69.    106.     83.     34.     10.      7.      7.      6.     10.     28.     0.1     0.2     0.1     0.0     0.0     0.0     0.0     0.0     0.0     0.0     0.9     1.3     1.3     0.0     0.0     0.0     0.0     0.0     0.0     0.0     0.1     0.1     0.1     0.0     0.0     0.0     0.0     0.0     0.0     0.0
 2025 214   285    0.14    0.04    0.16    0.09   146.0   0.007   0.146   0.078   0.171     0.0     0.2     0.0     5.9     377    0.28    0.38    5.67    0.28     2.6     1.9     1.4     0.0     0.0     0.0     0.0     0.0     0.0     0.0     53.    102.     82.     35.     13.      6.      6.      6.      9.     28.     0.2     0.2     0.2     0.0     0.0     0.0     0.0     0.0     0.0     0.0     2.4     1.8     1.4     0.0     0.0     0.0     0.0     0.0     0.0     0.0     0.0     0.1     0.1     0.0     0.0     0.0     0.0     0.0     0.0     0.0
 2025 215   286    0.14    0.04    0.16    0.09   146.4   0.007   0.147   0.085   0.171     0.0     0.2     0.0     7.4     354    0.35    0.35    7.09    0.26     2.7     2.8     1.9     0.0     0.0     0.0     0.0     0.0     0.0     0.0     48.     83.     80.     35.     16.      6.      6.      5.      9.     27.     0.2     0.2     0.2     0.0     0.0     0.0     0.0     0.0     0.0     0.0     2.6     2.7     1.8     0.0     0.0     0.0     0.0     0.0     0.0     0.0     0.0     0.0     0.1     0.0     0.0     0.0     0.0     0.0     0.0     0.0
 2025 216   287    0.14    0.04    0.16    0.10   146.7   0.008   0.147   0.092   0.171     0.1     0.7     0.1     7.2     374    0.35    0.37    6.90    0.31     1.7     2.1     1.9     1.6     0.0     0.0     0.0     0.0     0.0     0.0     61.     90.     78.     34.     20.      6.      6.      5.      9.     27.     0.1     0.2     0.2     0.1     0.0     0.0     0.0     0.0     0.0     0.0     1.6     2.0     1.8     1.5     0.0     0.0     0.0     0.0     0.0     0.0     0.0     0.1     0.1     0.1     0.0     0.0     0.0     0.0     0.0     0.0
 2025 217   288    0.14    0.04    0.16    0.11   147.1   0.008   0.148   0.099   0.172     0.1     0.7     0.1     7.2     377    0.35    0.38    6.82    0.32     1.8     1.9     1.8     1.7     0.0     0.0     0.0     0.0     0.0     0.0     59.     93.     78.     35.     21.      6.      6.      5.      9.     27.     0.1     0.2     0.2     0.1     0.0     0.0     0.0     0.0     0.0     0.0     1.7     1.8     1.7     1.6     0.0     0.0     0.0     0.0     0.0     0.0     0.0     0.1     0.1     0.1     0.0     0.0     0.0     0.0     0.0     0.0
 2025 218   289    0.14    0.04    0.16    0.11   147.5   0.008   0.148   0.103   0.172     0.3     1.9     0.2     4.7     396    0.23    0.40    4.49    0.36     0.7     1.3     1.3     1.4     0.0     0.0     0.0     0.0     0.0     0.0     63.     97.     81.     37.     24.      7.      6.      6.      9.     28.     0.1     0.2     0.1     0.1     0.0     0.0     0.0     0.0     0.0     0.0     0.7     1.2     1.3     1.4     0.0     0.0     0.0     0.0     0.0     0.0     0.1     0.1     0.1     0.1     0.0     0.0     0.0     0.0     0.0     0.0
 2025 219   290    0.14    0.05    0.16    0.11   147.9   0.008   0.148   0.104   0.172     0.5     2.9     0.3     0.8     386    0.04    0.39    0.80    0.38     0.0     0.2     0.2     0.4     0.0     0.0     0.0     0.0     0.0     0.0     60.     93.     79.     36.     25.      8.      6.      5.      9.     27.     0.1     0.1     0.1     0.1     0.0     0.0     0.0     0.0     0.0     0.0     0.0     0.2     0.2     0.4     0.0     0.0     0.0     0.0     0.0     0.0     0.1     0.1     0.1     0.0     0.0     0.0     0.0     0.0     0.0     0.0
 2025 220   291    0.14    0.05    0.16    0.11   148.3   0.008   0.149   0.104   0.173     0.5     2.9     0.3     0.0     394    0.00    0.39    0.00    0.39     0.0     0.0     0.0     0.0     0.0     0.0     0.0     0.0     0.0     0.0     59.     95.     81.     38.     28.      8.      6.      6.      9.     27.     0.1     0.1     0.1     0.0     0.0     0.0     0.0     0.0     0.0     0.0     0.0     0.0     0.0     0.0     0.0     0.0     0.0     0.0     0.0     0.0     0.1     0.1     0.1     0.0     0.0     0.0     0.0     0.0     0.0     0.0
 2025 221   292    0.14    0.05    0.16    0.11   148.7   0.008   0.149   0.104   0.173     0.5     2.9     0.3     0.0     428    0.00    0.43    0.00    0.42     0.0     0.0     0.0     0.0     0.0     0.0     0.0     0.0     0.0     0.0     60.    104.     88.     42.     32.      9.      7.      6.     10.     29.     0.1     0.1     0.1     0.0     0.0     0.0     0.0     0.0     0.0     0.0     0.0     0.0     0.0     0.0     0.0     0.0     0.0     0.0     0.0     0.0     0.1     0.1     0.1     0.0     0.0     0.0     0.0     0.0     0.0     0.0
