*PLANT N OUTPUT FILE

*DSSAT Cropping System Model Ver. 4.8.2.000 -release  JAN 23, 2026 17:32:35

*RUN   1        : No N                      WHAPS048 HWOC2501    1
 MODEL          : WHAPS048 - Wheat
 EXPERIMENT     : HWOC2501 WH
 DATA PATH      : C:/DSSAT48/Wheat/
 TREATMENT  1   : No N                      WHAPS048
  
@YEAR DOY   DAS   DAP   CNAD   GNAD   GN%D   VN%D   NUPC   LNAD   SNAD   LN%D   SN%D   RN%D   SNN0C   SNN1C NFact1 NFact2 NFact3 NFact4  RootN lfshthN
 2024 297     2     0    0.0    0.0   0.00   0.00    0.0    0.0    0.0    0.0   0.00   0.00    0.00    0.00   0.00   0.00   0.00   0.00   0.00   0.00
 2024 298     3     1    0.0    0.0   0.00   0.00    0.0    0.0    0.0    0.0   0.00   0.00    0.00    0.00   0.00   0.00   0.00   0.00   0.00   0.00
 2024 299     4     2    0.0    0.0   0.00   0.00    0.0    0.0    0.0    0.0   0.00   0.00    0.00    0.00   0.00   0.00   0.00   0.00   0.00   0.00
 2024 300     5     3    0.0    0.0   0.00   0.00    0.0    0.0    0.0    0.0   0.00   0.00    0.00    0.00   0.00   0.00   0.00   0.00   0.00   0.00
 2024 301     6     4    0.0    0.0   0.00   0.00    0.0    0.0    0.0    0.0   0.00   0.00    0.00    0.00   0.00   0.00   0.00   0.00   0.00   0.00
 2024 302     7     5    1.0    0.0   0.00   6.53    0.2    0.6    0.0    4.0   6.34   4.40    0.00    0.00   0.00   0.00   0.00   0.00   1.02   0.39
 2024 303     8     6    1.3    0.0   0.00   5.42    0.5    0.9    0.0    4.0   6.34   4.29    0.00    0.00   0.00   0.00   0.00   0.00   1.01   0.39
 2024 304     9     7    1.8    0.0   0.00   5.45    1.0    1.4    0.0    4.5   6.34   4.21    0.00    0.00   0.00   0.00   0.00   0.00   1.00   0.39
 2024 305    10     8    2.4    0.0   0.00   5.59    1.6    2.0    0.0    4.9   6.34   4.16    0.00    0.00   0.00   0.00   0.00   0.00   0.99   0.39
 2024 306    11     9    3.0    0.0   0.00   6.06    2.2    2.6    0.0    5.5   6.34   4.10    0.00    0.00   0.00   0.00   0.00   0.00   0.98   0.39
 2024 307    12    10    3.4    0.0   0.00   5.96    2.6    3.0    0.0    5.6   6.34   4.03    0.00    0.00   0.00   0.00   0.00   0.00   0.97   0.39
 2024 308    13    11    3.8    0.0   0.00   6.07    3.0    3.4    0.0    5.8   6.34   3.91    0.00    0.00   0.00   0.00   0.00   0.00   0.96   0.39
 2024 309    14    12    4.1    0.0   0.00   6.41    3.3    3.7    0.0    6.2   6.34   3.80    0.00    0.00   0.00   0.00   0.00   0.00   0.95   0.39
 2024 310    15    13    4.2    0.0   0.00   6.42    3.4    3.7    0.0    6.3   6.34   3.75    0.00    0.00   0.00   0.00   0.00   0.00   0.94   0.39
 2024 311    16    14    4.2    0.0   0.00   6.38    3.4    3.8    0.0    6.3   6.34   3.71    0.00    0.00   0.00   0.00   0.00   0.00   0.93   0.39
 2024 312    17    15    4.2    0.0   0.00   6.33    3.4    3.8    0.0    6.3   6.34   3.66    0.00    0.00   0.00   0.00   0.00   0.00   0.92   0.39
 2024 313    18    16    4.2    0.0   0.00   6.30    3.4    3.8    0.0    6.3   6.34   3.61    0.00    0.00   0.00   0.00   0.00   0.00   0.91   0.39
 2024 314    19    17    4.2    0.0   0.00   6.25    3.4    3.8    0.0    6.3   6.34   3.56    0.00    0.00   0.00   0.00   0.00   0.00   0.90   0.39
 2024 315    20    18    4.3    0.0   0.00   6.25    3.5    3.8    0.0    6.3   6.34   3.52    0.00    0.00   0.00   0.00   0.00   0.00   0.89   0.42
 2024 316    21    19    4.3    0.0   0.00   6.27    3.5    3.9    0.0    6.3   6.34   3.49    0.00    0.00   0.00   0.00   0.00   0.00   0.88   0.44
 2024 317    22    20    4.4    0.0   0.00   6.23    3.6    3.9    0.0    6.3   6.34   3.44    0.00    0.00   0.00   0.00   0.00   0.00   0.87   0.45
 2024 318    23    21    4.4    0.0   0.00   6.27    3.6    3.9    0.0    6.3   6.34   3.42    0.00    0.00   0.00   0.00   0.00   0.00   0.86   0.48
 2024 319    24    22    4.4    0.0   0.00   6.24    3.6    3.9    0.0    6.3   6.34   3.38    0.00    0.00   0.00   0.00   0.00   0.00   0.86   0.49
 2024 320    25    23    4.5    0.0   0.00   6.21    3.7    3.9    0.0    6.2   6.34   3.33    0.00    0.00   0.00   0.00   0.00   0.00   0.85   0.51
 2024 321    26    24    4.5    0.0   0.00   6.16    3.7    4.0    0.0    6.2   6.34   3.25    0.00    0.00   0.00   0.00   0.00   0.00   0.84   0.54
 2024 322    27    25    4.6    0.0   0.00   6.22    3.8    4.0    0.0    6.2   6.34   3.22    0.00    0.00   0.00   0.00   0.00   0.00   0.83   0.58
 2024 323    28    26    4.6    0.0   0.00   6.21    3.8    4.0    0.0    6.2   6.34   3.18    0.00    0.00   0.00   0.00   0.00   0.00   0.82   0.60
 2024 324    29    27    4.7    0.0   0.00   6.16    3.9    4.0    0.0    6.2   6.34   3.13    0.00    0.00   0.00   0.00   0.00   0.00   0.81   0.62
 2024 325    30    28    4.7    0.0   0.00   6.17    3.9    4.0    0.0    6.2   6.34   3.08    0.00    0.00   0.00   0.00   0.00   0.00   0.81   0.65
 2024 326    31    29    4.8    0.0   0.00   6.24    4.0    4.1    0.0    6.2   6.34   3.08    0.00    0.00   0.00   0.00   0.00   0.00   0.80   0.68
 2024 327    32    30    4.8    0.0   0.00   6.24    4.0    4.1    0.0    6.2   6.34   3.08    0.00    0.00   0.00   0.00   0.00   0.00   0.79   0.68
 2024 328    33    31    4.8    0.0   0.00   6.16    4.0    4.1    0.0    6.2   6.34   3.03    0.00    0.00   0.00   0.00   0.00   0.00   0.78   0.68
 2024 329    34    32    4.8    0.0   0.00   6.07    4.0    4.1    0.0    6.1   6.34   2.95    0.00    0.00   0.00   0.00   0.00   0.00   0.77   0.70
 2024 330    35    33    4.9    0.0   0.00   6.01    4.1    4.1    0.0    6.1   6.34   2.84    0.00    0.00   0.00   0.00   0.00   0.00   0.77   0.76
 2024 331    36    34    5.0    0.0   0.00   6.05    4.2    4.2    0.0    6.1   6.34   2.77    0.00    0.00   0.00   0.00   0.00   0.00   0.76   0.82
 2024 332    37    35    5.1    0.0   0.00   5.99    4.3    4.2    0.0    6.1   6.34   2.68    0.00    0.00   0.00   0.00   0.00   0.00   0.75   0.87
 2024 333    38    36    5.2    0.0   0.00   6.02    4.4    4.3    0.0    6.1   6.34   2.61    0.00    0.00   0.00   0.00   0.00   0.00   0.74   0.94
 2024 334    39    37    5.3    0.0   0.00   6.05    4.5    4.3    0.0    6.1   6.34   2.57    0.00    0.00   0.00   0.00   0.00   0.00   0.74   0.98
 2024 335    40    38    5.4    0.0   0.00   6.02    4.6    4.3    0.0    6.1   6.34   2.45    0.00    0.00   0.00   0.00   0.00   0.00   0.73   1.01
 2024 336    41    39    5.5    0.0   0.00   6.12    4.7    4.4    0.0    6.1   6.34   2.45    0.00    0.00   0.00   0.00   0.00   0.00   0.72   1.06
 2024 337    42    40    5.5    0.0   0.00   6.06    4.7    4.4    0.0    6.1   6.34   2.42    0.00    0.00   0.00   0.00   0.00   0.00   0.71   1.06
 2024 338    43    41    5.5    0.0   0.00   6.03    4.7    4.4    0.0    6.1   6.34   2.39    0.00    0.00   0.00   0.01   0.02   0.02   0.71   1.08
 2024 339    44    42    5.5    0.0   0.00   6.06    4.7    4.4    0.0    6.1   6.34   2.35    0.00    0.00   0.00   0.02   0.03   0.03   0.70   1.11
 2024 340    45    43    5.6    0.0   0.00   6.09    4.8    4.4    0.0    6.1   6.34   2.35    0.00    0.00   0.00   0.01   0.01   0.01   0.69   1.12
 2024 341    46    44    5.6    0.0   0.00   6.03    4.8    4.4    0.0    6.1   6.34   2.32    0.00    0.00   0.00   0.00   0.00   0.00   0.69   1.12
 2024 342    47    45    5.6    0.0   0.00   6.03    4.8    4.4    0.0    6.0   6.34   2.30    0.00    0.00   0.00   0.01   0.02   0.02   0.68   1.14
 2024 343    48    46    5.6    0.0   0.00   5.99    4.8    4.5    0.0    6.0   6.34   2.27    0.00    0.00   0.00   0.01   0.02   0.02   0.67   1.16
 2024 344    49    47    5.7    0.0   0.00   6.02    4.9    4.5    0.0    6.0   6.34   2.25    0.00    0.00   0.00   0.02   0.03   0.03   0.67   1.19
 2024 345    50    48    5.7    0.0   0.00   6.04    4.9    4.5    0.0    6.0   6.34   2.24    0.00    0.00   0.00   0.01   0.01   0.01   0.66   1.20
 2024 346    51    49    5.7    0.0   0.00   6.04    4.9    4.5    0.0    6.0   6.34   2.23    0.00    0.00   0.00   0.00   0.00   0.00   0.65   1.21
 2024 347    52    50    5.7    0.0   0.00   6.04    4.9    4.5    0.0    6.0   6.34   2.23    0.00    0.00   0.00   0.00   0.00   0.00   0.65   1.21
 2024 348    53    51    5.7    0.0   0.00   6.04    4.9    4.5    0.0    6.0   6.34   2.23    0.00    0.00   0.00   0.00   0.00   0.00   0.64   1.21
 2024 349    54    52    5.7    0.0   0.00   6.04    4.9    4.5    0.0    6.0   6.34   2.23    0.00    0.00   0.00   0.00   0.00   0.00   0.63   1.21
 2024 350    55    53    5.7    0.0   0.00   6.01    4.9    4.5    0.0    6.0   6.34   2.21    0.00    0.00   0.00   0.00   0.00   0.00   0.63   1.21
 2024 351    56    54    5.7    0.0   0.00   5.96    4.9    4.5    0.0    6.0   6.34   2.18    0.00    0.00   0.00   0.00   0.01   0.01   0.62   1.22
 2024 352    57    55    5.8    0.0   0.00   5.94    5.0    4.5    0.0    6.0   6.34   2.14    0.00    0.00   0.00   0.01   0.03   0.03   0.61   1.25
 2024 353    58    56    5.8    0.0   0.00   5.89    5.0    4.5    0.0    5.9   6.34   2.09    0.00    0.00   0.00   0.02   0.03   0.03   0.61   1.27
 2024 354    59    57    5.9    0.0   0.00   5.83    5.1    4.5    0.0    5.9   6.34   2.04    0.00    0.00   0.00   0.02   0.05   0.05   0.60   1.30
 2024 355    60    58    5.9    0.0   0.00   5.85    5.1    4.6    0.0    5.9   6.34   2.02    0.00    0.00   0.00   0.04   0.08   0.08   0.60   1.32
 2024 356    61    59    5.9    0.0   0.00   5.83    5.1    4.6    0.0    5.9   6.34   2.00    0.00    0.00   0.00   0.03   0.06   0.06   0.59   1.33
 2024 357    62    60    6.0    0.0   0.00   5.82    5.2    4.6    0.0    5.9   6.34   1.98    0.00    0.00   0.00   0.03   0.07   0.07   0.58   1.35
 2024 358    63    61    6.0    0.0   0.00   5.83    5.2    4.6    0.0    5.9   6.34   1.97    0.00    0.00   0.00   0.04   0.07   0.07   0.58   1.36
 2024 359    64    62    6.0    0.0   0.00   5.80    5.2    4.6    0.0    5.9   6.34   1.95    0.00    0.00   0.00   0.03   0.06   0.06   0.58   1.37
 2024 360    65    63    6.0    0.0   0.00   5.79    5.2    4.6    0.0    5.8   6.34   1.92    0.00    0.00   0.00   0.04   0.08   0.08   0.57   1.38
 2024 361    66    64    6.1    0.0   0.00   5.81    5.3    4.6    0.0    5.9   6.34   1.92    0.00    0.00   0.00   0.04   0.08   0.08   0.57   1.40
 2024 362    67    65    6.1    0.0   0.00   5.83    5.3    4.6    0.0    5.9   6.34   1.93    0.00    0.00   0.00   0.04   0.07   0.07   0.56   1.41
 2024 363    68    66    6.1    0.0   0.00   5.85    5.3    4.7    0.0    5.9   6.34   1.93    0.00    0.00   0.00   0.03   0.06   0.06   0.56   1.42
 2024 364    69    67    6.1    0.0   0.00   5.88    5.3    4.7    0.0    5.9   6.34   1.93    0.00    0.00   0.00   0.02   0.04   0.04   0.55   1.43
 2024 365    70    68    6.1    0.0   0.00   5.90    5.4    4.7    0.0    5.9   6.34   1.93    0.00    0.00   0.00   0.02   0.03   0.03   0.55   1.45
 2024 366    71    69    6.2    0.0   0.00   5.92    5.4    4.7    0.0    5.9   6.34   1.94    0.00    0.00   0.00   0.01   0.02   0.02   0.54   1.46
 2025 001    72    70    6.2    0.0   0.00   5.92    5.4    4.7    0.0    5.9   6.34   1.98    0.00    0.00   0.00   0.00   0.00   0.00   0.55   1.46
 2025 002    73    71    6.2    0.0   0.00   5.89    5.4    4.7    0.0    5.9   6.34   1.99    0.00    0.00   0.00   0.00   0.00   0.00   0.56   1.47
 2025 003    74    72    6.2    0.0   0.00   5.90    5.4    4.7    0.0    5.9   6.34   1.99    0.00    0.00   0.00   0.01   0.02   0.02   0.55   1.48
 2025 004    75    73    6.2    0.0   0.00   5.92    5.4    4.7    0.0    5.9   6.34   1.99    0.00    0.00   0.00   0.00   0.01   0.01   0.54   1.48
 2025 005    76    74    6.2    0.0   0.00   5.91    5.4    4.7    0.0    5.9   6.34   1.98    0.00    0.00   0.00   0.00   0.00   0.00   0.54   1.48
 2025 006    77    75    6.2    0.0   0.00   5.83    5.4    4.7    0.0    5.9   6.34   1.96    0.00    0.00   0.00   0.00   0.00   0.00   0.54   1.49
 2025 007    78    76    6.2    0.0   0.00   5.75    5.5    4.7    0.0    5.8   6.34   1.92    0.00    0.00   0.00   0.02   0.04   0.04   0.54   1.49
 2025 008    79    77    6.2    0.0   0.00   5.72    5.5    4.7    0.0    5.8   6.34   1.90    0.00    0.00   0.00   0.04   0.08   0.08   0.53   1.50
 2025 009    80    78    6.2    0.0   0.00   5.63    5.5    4.7    0.0    5.7   6.34   1.86    0.00    0.00   0.00   0.04   0.09   0.09   0.53   1.50
 2025 010    81    79    6.2    0.0   0.00   5.64    5.5    4.7    0.0    5.7   6.34   1.86    0.00    0.00   0.00   0.07   0.13   0.13   0.52   1.50
 2025 011    82    80    6.2    0.0   0.00   5.65    5.5    4.7    0.0    5.7   6.34   1.86    0.00    0.00   0.00   0.07   0.13   0.13   0.52   1.51
 2025 012    83    81    6.3    0.0   0.00   5.65    5.5    4.7    0.0    5.7   6.34   1.86    0.00    0.00   0.00   0.07   0.13   0.13   0.52   1.51
 2025 013    84    82    6.3    0.0   0.00   5.66    5.5    4.7    0.0    5.7   6.34   1.87    0.00    0.00   0.00   0.06   0.12   0.12   0.51   1.52
 2025 014    85    83    6.3    0.0   0.00   5.67    5.5    4.7    0.0    5.7   6.34   1.87    0.00    0.00   0.00   0.06   0.12   0.12   0.51   1.52
 2025 015    86    84    6.3    0.0   0.00   5.67    5.5    4.7    0.0    5.7   6.34   1.87    0.00    0.00   0.00   0.06   0.11   0.11   0.50   1.52
 2025 016    87    85    6.3    0.0   0.00   5.65    5.5    4.7    0.0    5.7   6.34   1.83    0.00    0.00   0.00   0.06   0.11   0.11   0.50   1.53
 2025 017    88    86    6.3    0.0   0.00   5.65    5.5    4.7    0.0    5.7   6.34   1.84    0.00    0.00   0.00   0.06   0.12   0.12   0.49   1.53
 2025 018    89    87    6.3    0.0   0.00   5.66    5.5    4.7    0.0    5.7   6.34   1.84    0.00    0.00   0.00   0.06   0.12   0.12   0.49   1.53
 2025 019    90    88    6.3    0.0   0.00   5.67    5.6    4.7    0.0    5.7   6.34   1.84    0.00    0.00   0.00   0.06   0.11   0.11   0.49   1.54
 2025 020    91    89    6.3    0.0   0.00   5.64    5.6    4.7    0.0    5.7   6.34   1.81    0.00    0.00   0.00   0.05   0.10   0.10   0.48   1.54
 2025 021    92    90    6.3    0.0   0.00   5.65    5.6    4.7    0.0    5.7   6.34   1.81    0.00    0.00   0.00   0.06   0.12   0.12   0.48   1.55
 2025 022    93    91    6.3    0.0   0.00   5.65    5.6    4.8    0.0    5.7   6.34   1.82    0.00    0.00   0.00   0.06   0.11   0.11   0.48   1.55
 2025 023    94    92    6.3    0.0   0.00   5.60    5.6    4.8    0.0    5.7   6.34   1.78    0.00    0.00   0.00   0.05   0.10   0.10   0.47   1.55
 2025 024    95    93    6.3    0.0   0.00   5.48    5.6    4.8    0.0    5.6   6.34   1.72    0.00    0.00   0.00   0.07   0.13   0.13   0.47   1.56
 2025 025    96    94    6.3    0.0   0.00   5.31    5.6    4.8    0.0    5.5   6.34   1.62    0.00    0.00   0.00   0.10   0.18   0.18   0.46   1.56
 2025 026    97    95    6.4    0.0   0.00   5.22    5.6    4.8    0.0    5.4   6.34   1.57    0.00    0.00   0.00   0.14   0.27   0.27   0.46   1.57
 2025 027    98    96    6.4    0.0   0.00   5.12    5.6    4.8    0.0    5.3   6.34   1.52    0.00    0.00   0.00   0.17   0.31   0.31   0.46   1.57
 2025 028    99    97    6.4    0.0   0.00   5.08    5.6    4.8    0.0    5.3   6.34   1.50    0.00    0.00   0.00   0.19   0.35   0.35   0.45   1.57
 2025 029   100    98    6.4    0.0   0.00   4.94    5.6    4.8    0.0    5.2   6.34   1.43    0.00    0.00   0.00   0.20   0.36   0.36   0.45   1.58
 2025 030   101    99    6.4    0.0   0.00   4.81    5.6    4.8    0.0    5.1   6.34   1.36    0.00    0.00   0.00   0.24   0.42   0.42   0.45   1.58
 2025 031   102   100    6.4    0.0   0.00   4.78    5.7    4.8    0.0    5.1   6.34   1.33    0.00    0.00   0.00   0.28   0.48   0.48   0.44   1.59
 2025 032   103   101    6.4    0.0   0.00   4.79    5.7    4.8    0.0    5.1   6.34   1.33    0.00    0.00   0.00   0.28   0.49   0.49   0.44   1.59
 2025 033   104   102    6.4    0.0   0.00   4.78    5.7    4.8    0.0    5.1   6.34   1.33    0.00    0.00   0.00   0.28   0.48   0.48   0.44   1.60
 2025 034   105   103    6.4    0.0   0.00   4.79    5.7    4.8    0.0    5.1   6.34   1.33    0.00    0.00   0.00   0.28   0.48   0.48   0.43   1.60
 2025 035   106   104    6.4    0.0   0.00   4.80    5.7    4.8    0.0    5.1   6.34   1.33    0.00    0.00   0.00   0.28   0.48   0.48   0.43   1.60
 2025 036   107   105    6.4    0.0   0.00   4.80    5.7    4.8    0.0    5.1   6.34   1.34    0.00    0.00   0.00   0.28   0.48   0.48   0.43   1.61
 2025 037   108   106    6.4    0.0   0.00   4.79    5.7    4.8    0.0    5.1   6.34   1.32    0.00    0.00   0.00   0.27   0.47   0.47   0.43   1.61
 2025 038   109   107    6.5    0.0   0.00   4.79    5.7    4.8    0.0    5.1   6.34   1.31    0.00    0.00   0.00   0.27   0.47   0.47   0.42   1.62
 2025 039   110   108    6.5    0.0   0.00   4.73    5.7    4.8    0.0    5.1   6.34   1.25    0.00    0.00   0.00   0.27   0.47   0.47   0.42   1.62
 2025 040   111   109    6.5    0.0   0.00   4.72    5.7    4.8    0.0    5.0   6.34   1.23    0.00    0.00   0.00   0.29   0.50   0.50   0.42   1.63
 2025 041   112   110    6.5    0.0   0.00   4.63    5.8    4.8    0.0    5.0   6.34   1.14    0.00    0.00   0.00   0.29   0.50   0.50   0.42   1.63
 2025 042   113   111    6.5    0.0   0.00   4.61    5.8    4.8    0.0    5.0   6.34   1.13    0.00    0.00   0.00   0.32   0.54   0.54   0.41   1.64
 2025 043   114   112    6.5    0.0   0.00   4.51    5.8    4.8    0.0    4.9   6.34   1.09    0.00    0.00   0.00   0.32   0.54   0.54   0.41   1.64
 2025 044   115   113    6.5    0.0   0.00   4.52    5.8    4.8    0.0    4.9   6.34   1.09    0.00    0.00   0.02   0.35   0.58   0.58   0.41   1.65
 2025 045   116   114    6.5    0.0   0.00   4.52    5.8    4.8    0.0    4.9   6.34   1.10    0.00    0.00   0.02   0.35   0.57   0.57   0.41   1.65
 2025 046   117   115    6.5    0.0   0.00   4.53    5.8    4.8    0.0    4.9   6.34   1.10    0.00    0.00   0.02   0.35   0.57   0.57   0.40   1.66
 2025 047   118   116    6.5    0.0   0.00   4.53    5.8    4.8    0.0    4.9   6.34   1.11    0.00    0.00   0.02   0.34   0.57   0.57   0.40   1.66
 2025 048   119   117    6.5    0.0   0.00   4.54    5.8    4.9    0.0    4.9   6.34   1.11    0.00    0.00   0.01   0.34   0.57   0.57   0.40   1.66
 2025 049   120   118    6.5    0.0   0.00   4.54    5.8    4.9    0.0    4.9   6.34   1.11    0.00    0.00   0.01   0.34   0.57   0.57   0.40   1.67
 2025 050   121   119    6.6    0.0   0.00   4.55    5.8    4.9    0.0    4.9   6.34   1.12    0.00    0.00   0.01   0.34   0.56   0.56   0.39   1.67
 2025 051   122   120    6.6    0.0   0.00   4.54    5.9    4.9    0.0    4.9   6.34   1.11    0.00    0.00   0.00   0.34   0.56   0.56   0.39   1.67
 2025 052   123   121    6.6    0.0   0.00   4.25    5.9    4.9    0.0    4.7   6.34   0.99    0.00    0.00   0.00   0.33   0.55   0.55   0.39   1.68
 2025 053   124   122    6.6    0.0   0.00   4.04    5.9    4.9    0.0    4.5   6.34   0.91    0.00    0.00   0.13   0.42   0.66   0.66   0.38   1.68
 2025 054   125   123    6.6    0.0   0.00   3.84    5.9    4.9    0.0    4.3   6.34   0.84    0.00    0.00   0.22   0.48   0.73   0.73   0.38   1.69
 2025 055   126   124    6.6    0.0   0.00   3.68    5.9    4.9    0.0    4.2   6.34   0.79    0.00    0.00   0.31   0.54   0.79   0.79   0.38   1.69
 2025 056   127   125    6.6    0.0   0.00   3.53    5.9    4.9    0.0    4.1   6.34   0.74    0.00    0.00   0.38   0.58   0.83   0.83   0.38   1.70
 2025 057   128   126    6.6    0.0   0.00   3.50    5.9    4.9    0.0    4.0   6.34   0.73    0.00    0.00   0.44   0.63   0.86   0.86   0.38   1.71
 2025 058   129   127    6.6    0.0   0.00   3.43    5.9    4.9    0.0    4.0   6.34   0.71    0.00    0.00   0.46   0.64   0.87   0.87   0.38   1.72
 2025 059   130   128    6.7    0.0   0.00   3.40    6.0    4.9    0.0    3.9   6.34   0.69    0.00    0.00   0.48   0.66   0.88   0.88   0.37   1.72
 2025 060   131   129    6.7    0.0   0.00   3.36    6.0    4.9    0.0    3.9   6.34   0.66    0.00    0.00   0.50   0.67   0.89   0.89   0.37   1.73
 2025 061   132   130    6.7    0.0   0.00   3.28    6.0    4.9    0.0    3.8   6.34   0.61    0.00    0.00   0.51   0.68   0.89   0.89   0.37   1.74
 2025 062   133   131    6.7    0.0   0.00   3.29    6.0    4.9    0.0    3.8   6.34   0.62    0.00    0.00   0.55   0.70   0.91   0.91   0.37   1.75
 2025 063   134   132    6.7    0.0   0.00   3.17    6.0    4.9    0.0    3.7   6.34   0.59    0.00    0.00   0.54   0.69   0.91   0.91   0.37   1.76
 2025 064   135   133    6.7    0.0   0.00   3.04    6.1    4.9    0.0    3.6   6.34   0.56    0.00    0.00   0.59   0.73   0.93   0.93   0.37   1.77
 2025 065   136   134    6.8    0.0   0.00   2.92    6.1    5.0    0.0    3.5   6.34   0.53    0.00    0.00   0.65   0.77   0.95   0.95   0.37   1.78
 2025 066   137   135    6.8    0.0   0.00   2.82    6.1    5.0    0.0    3.4   6.34   0.50    0.00    0.00   0.70   0.80   0.96   0.96   0.37   1.79
 2025 067   138   136    6.8    0.0   0.00   2.74    6.1    5.0    0.0    3.3   6.34   0.49    0.00    0.00   0.75   0.83   0.97   0.97   0.37   1.81
 2025 068   139   137    6.8    0.0   0.00   2.67    6.2    5.0    0.0    3.2   6.34   0.47    0.00    0.00   0.78   0.85   0.98   0.98   0.37   1.82
 2025 069   140   138    6.9    0.0   0.00   2.63    6.2    5.0    0.0    3.2   6.34   0.47    0.00    0.00   0.81   0.87   0.98   0.98   0.38   1.84
 2025 070   141   139    6.9    0.0   0.00   2.61    6.3    5.0    0.0    3.2   6.34   0.47    0.00    0.00   0.83   0.88   0.99   0.99   0.38   1.86
 2025 071   142   140    7.0    0.0   0.00   2.61    6.4    5.1    0.0    3.2   6.34   0.48    0.00    0.00   0.84   0.89   0.99   0.99   0.39   1.90
 2025 072   143   141    7.1    0.0   0.00   2.62    6.4    5.1    0.0    3.2   6.34   0.49    0.00    0.00   0.83   0.89   0.99   0.99   0.40   1.94
 2025 073   144   142    7.1    0.0   0.00   2.62    6.5    5.1    0.0    3.2   6.34   0.50    0.00    0.00   0.82   0.88   0.99   0.99   0.40   1.98
 2025 074   145   143    7.2    0.0   0.00   2.62    6.6    5.2    0.0    3.1   6.34   0.50    0.00    0.00   0.82   0.88   0.99   0.99   0.41   2.01
 2025 075   146   144    7.3    0.0   0.00   2.61    6.7    5.2    0.0    3.1   6.34   0.50    0.00    0.00   0.82   0.88   0.99   0.99   0.42   2.05
 2025 076   147   145    7.3    0.0   0.00   2.63    6.8    5.2    0.0    3.1   6.34   0.51    0.00    0.00   0.82   0.88   0.99   0.99   0.43   2.08
 2025 077   148   146    7.4    0.0   0.00   2.64    6.8    5.3    0.0    3.2   6.34   0.52    0.00    0.00   0.81   0.87   0.98   0.98   0.43   2.11
 2025 078   149   147    7.4    0.0   0.00   2.66    6.9    5.3    0.0    3.2   6.34   0.53    0.00    0.00   0.80   0.87   0.98   0.98   0.44   2.13
 2025 079   150   148    7.5    0.0   0.00   2.60    6.9    5.3    0.0    3.1   6.34   0.51    0.00    0.00   0.78   0.86   0.98   0.98   0.44   2.15
 2025 080   151   149    7.5    0.0   0.00   2.54    7.0    5.3    0.0    3.0   6.34   0.50    0.00    0.00   0.81   0.87   0.98   0.98   0.44   2.18
 2025 081   152   150    7.6    0.0   0.00   2.50    7.0    5.3    0.0    3.0   6.34   0.49    0.00    0.00   0.84   0.89   0.99   0.99   0.44   2.20
 2025 082   153   151    7.6    0.0   0.00   2.48    7.1    5.4    0.0    3.0   6.34   0.49    0.00    0.00   0.85   0.90   0.99   0.99   0.45   2.23
 2025 083   154   152    7.7    0.0   0.00   2.46    7.2    5.4    0.0    3.0   6.34   0.49    0.00    0.00   0.86   0.91   0.99   0.99   0.45   2.25
 2025 084   155   153    7.7    0.0   0.00   2.44    7.2    5.4    0.0    2.9   6.34   0.49    0.00    0.00   0.86   0.91   0.99   0.99   0.46   2.29
 2025 085   156   154    7.8    0.0   0.00   2.44    7.3    5.5    0.0    2.9   6.34   0.50    0.00    0.00   0.87   0.91   0.99   0.99   0.47   2.33
 2025 086   157   155    7.9    0.0   0.00   2.44    7.4    5.5    0.0    2.9   6.34   0.50    0.00    0.00   0.86   0.91   0.99   0.99   0.48   2.38
 2025 087   158   156    8.0    0.0   0.00   2.44    7.6    5.6    0.0    2.9   6.34   0.50    0.00    0.00   0.86   0.91   0.99   0.99   0.50   2.44
 2025 088   159   157    8.1    0.0   0.00   2.44    7.7    5.6    0.0    2.9   6.34   0.52    0.00    0.00   0.85   0.90   0.99   0.99   0.52   2.51
 2025 089   160   158    8.3    0.0   0.00   2.45    7.9    5.7    0.0    2.9   6.34   0.53    0.00    0.00   0.85   0.90   0.99   0.99   0.54   2.57
 2025 090   161   159    8.4    0.0   0.00   2.46    8.0    5.7    0.0    2.9   6.34   0.54    0.00    0.00   0.84   0.89   0.99   0.99   0.56   2.64
 2025 091   162   160    8.5    0.0   0.00   2.47    8.2    5.8    0.0    2.9   6.34   0.55    0.00    0.00   0.83   0.89   0.99   0.99   0.58   2.71
 2025 092   163   161    8.7    0.0   0.00   2.46    8.3    5.9    0.0    2.9   6.34   0.55    0.00    0.00   0.82   0.88   0.99   0.99   0.60   2.78
 2025 093   164   162    8.8    0.0   0.00   2.43    8.5    5.9    0.0    2.8   6.34   0.54    0.00    0.00   0.82   0.88   0.99   0.99   0.62   2.84
 2025 094   165   163    8.9    0.0   0.00   2.40    8.6    6.0    0.0    2.8   6.34   0.53    0.00    0.00   0.83   0.88   0.99   0.99   0.64   2.90
 2025 095   166   164    9.0    0.0   0.00   2.38    8.8    6.0    0.0    2.8   6.34   0.53    0.00    0.00   0.83   0.89   0.99   0.99   0.67   2.97
 2025 096   167   165    9.1    0.0   0.00   2.40    8.9    6.1    0.0    2.8   6.34   0.54    0.00    0.00   0.84   0.90   0.99   0.99   0.69   3.04
 2025 097   168   166    9.3    0.0   0.00   2.43    9.1    6.1    0.0    2.8   6.34   0.56    0.00    0.00   0.83   0.89   0.99   0.99   0.71   3.10
 2025 098   169   167    9.4    0.0   0.00   2.42    9.2    6.2    0.0    2.8   6.34   0.55    0.00    0.00   0.80   0.87   0.98   0.98   0.73   3.16
 2025 099   170   168    9.5    0.0   0.00   2.41    9.4    6.2    0.0    2.8   6.34   0.55    0.00    0.00   0.81   0.87   0.98   0.98   0.75   3.22
 2025 100   171   169    9.6    0.0   0.00   2.39    9.5    6.3    0.0    2.8   6.34   0.54    0.00    0.00   0.81   0.87   0.98   0.98   0.77   3.28
 2025 101   172   170    9.7    0.0   0.00   2.37    9.7    6.3    0.0    2.7   6.34   0.53    0.00    0.00   0.81   0.87   0.98   0.98   0.80   3.34
 2025 102   173   171    9.8    0.0   0.00   2.34    9.8    6.4    0.0    2.7   6.34   0.52    0.00    0.00   0.82   0.88   0.98   0.98   0.82   3.40
 2025 103   174   172    9.9    0.0   0.00   2.32    9.9    6.5    0.0    2.7   6.34   0.52    0.00    0.00   0.83   0.88   0.99   0.99   0.84   3.46
 2025 104   175   173   10.1    0.0   0.00   2.29   10.1    6.5    0.0    2.6   6.34   0.53    0.00    0.00   0.83   0.89   0.99   0.99   0.86   3.53
 2025 105   176   174   10.2    0.0   0.00   2.27   10.3    6.6    0.0    2.6   1.45   0.54    0.00    0.00   0.83   0.89   0.99   0.99   0.89   3.60
 2025 106   177   175   10.3    0.0   0.00   2.24   10.5    6.6    0.0    2.6   0.90   0.54    0.00    0.00   0.83   0.89   0.99   0.99   0.92   3.67
 2025 107   178   176   10.5    0.0   0.00   2.24   10.7    6.7    0.0    2.6   0.82   0.56    0.00    0.00   0.83   0.89   0.99   0.99   0.95   3.76
 2025 108   179   177   10.7    0.0   0.00   2.26   10.9    6.8    0.1    2.6   0.84   0.58    0.00    0.00   0.82   0.88   0.99   0.99   0.99   3.87
 2025 109   180   178   10.9    0.0   0.00   2.24   11.2    6.9    0.1    2.6   0.73   0.59    0.00    0.00   0.79   0.86   0.98   0.98   1.03   3.96
 2025 110   181   179   11.1    0.0   0.00   2.22   11.4    7.0    0.1    2.6   0.69   0.60    0.00    0.00   0.79   0.86   0.98   0.98   1.07   4.07
 2025 111   182   180   11.4    0.0   0.00   2.21   11.7    7.1    0.1    2.6   0.70   0.62    0.00    0.00   0.80   0.86   0.98   0.98   1.12   4.18
 2025 112   183   181   11.6    0.0   0.00   2.20   12.0    7.2    0.1    2.6   0.71   0.64    0.00    0.00   0.79   0.86   0.98   0.98   1.17   4.29
 2025 113   184   182   11.8    0.0   0.00   2.19   12.3    7.3    0.2    2.5   0.71   0.65    0.00    0.00   0.78   0.85   0.98   0.98   1.23   4.42
 2025 114   185   183   12.1    0.0   0.00   2.19   12.6    7.4    0.2    2.5   0.75   0.67    0.00    0.00   0.78   0.85   0.98   0.98   1.28   4.53
 2025 115   186   184   12.3    0.0   0.00   2.20   12.9    7.5    0.2    2.5   0.79   0.69    0.00    0.00   0.76   0.84   0.97   0.97   1.33   4.65
 2025 116   187   185   12.6    0.0   0.00   2.18   13.3    7.6    0.3    2.5   0.79   0.70    0.00    0.00   0.74   0.82   0.97   0.97   1.39   4.78
 2025 117   188   186   12.9    0.0   0.00   2.16   13.7    7.7    0.3    2.5   0.80   0.72    0.00    0.00   0.74   0.82   0.97   0.97   1.47   4.94
 2025 118   189   187   13.3    0.0   0.00   2.13   14.2    7.8    0.4    2.5   0.80   0.73    0.00    0.00   0.74   0.83   0.97   0.97   1.54   5.09
 2025 119   190   188   13.6    0.0   0.00   2.10   14.6    7.9    0.5    2.5   0.80   0.74    0.00    0.00   0.74   0.83   0.97   0.97   1.62   5.23
 2025 120   191   189   13.9    0.0   0.00   2.06   15.0    8.0    0.5    2.4   0.80   0.74    0.00    0.00   0.74   0.83   0.97   0.97   1.68   5.36
 2025 121   192   190   14.2    0.0   0.00   2.04   15.4    8.1    0.6    2.4   0.81   0.75    0.00    0.00   0.74   0.83   0.97   0.97   1.75   5.49
 2025 122   193   191   14.5    0.0   0.00   2.00   15.8    8.2    0.7    2.4   0.80   0.75    0.00    0.00   0.73   0.82   0.97   0.97   1.82   5.61
 2025 123   194   192   14.9    0.0   0.00   2.00   16.2    8.3    0.8    2.4   0.84   0.77    0.00    0.00   0.74   0.83   0.97   0.97   1.90   5.74
 2025 124   195   193   15.2    0.0   0.00   1.99   16.6    8.4    0.9    2.4   0.86   0.78    0.00    0.00   0.72   0.81   0.96   0.96   1.98   5.86
 2025 125   196   194   15.6    0.0   0.00   2.00   17.1    8.5    1.0    2.4   0.91   0.81    0.00    0.00   0.71   0.81   0.96   0.96   2.08   6.02
 2025 126   197   195   16.1    0.0   0.00   1.98   17.7    8.7    1.2    2.3   0.94   0.83    0.00    0.00   0.68   0.79   0.95   0.95   2.21   6.19
 2025 127   198   196   16.5    0.0   0.00   1.96   18.4    8.8    1.4    2.3   0.96   0.85    0.00    0.00   0.68   0.79   0.95   0.95   2.34   6.36
 2025 128   199   197   17.0    0.0   0.00   1.95   19.0    8.9    1.5    2.3   0.99   0.87    0.00    0.00   0.67   0.78   0.95   0.95   2.45   6.52
 2025 129   200   198   17.4    0.0   0.00   1.91   19.5    9.0    1.7    2.3   0.97   0.86    0.00    0.00   0.66   0.77   0.95   0.95   2.56   6.66
 2025 130   201   199   17.8    0.0   0.00   1.87   20.0    9.1    1.9    2.3   0.95   0.86    0.00    0.00   0.69   0.80   0.96   0.96   2.65   6.78
 2025 131   202   200   18.2    0.0   0.00   1.83   20.5    9.2    2.0    2.2   0.94   0.85    0.00    0.00   0.72   0.81   0.96   0.96   2.74   6.89
 2025 132   203   201   18.5    0.0   0.00   1.80   21.0    9.3    2.2    2.2   0.93   0.85    0.00    0.00   0.73   0.82   0.97   0.97   2.83   7.00
 2025 133   204   202   18.9    0.0   0.00   1.78   21.4    9.4    2.4    2.2   0.92   0.85    0.00    0.00   0.75   0.83   0.97   0.97   2.92   7.10
 2025 134   205   203   19.2    0.0   0.00   1.75   21.9    9.4    2.6    2.2   0.92   0.85    0.00    0.00   0.75   0.83   0.97   0.97   3.00   7.19
 2025 135   206   204   19.5    0.0   0.00   1.73   22.3    9.5    2.8    2.2   0.89   0.86    0.00    0.00   0.75   0.83   0.97   0.97   3.08   7.26
 2025 136   207   205   19.8    0.0   0.00   1.71   22.8    9.5    3.0    2.2   0.88   0.87    0.00    0.00   0.74   0.83   0.97   0.97   3.16   7.32
 2025 137   208   206   20.2    0.0   0.00   1.69   23.2    9.5    3.2    2.2   0.86   0.87    0.00    0.00   0.72   0.81   0.97   0.97   3.25   7.37
 2025 138   209   207   20.5    0.0   0.00   1.67   23.6    9.6    3.5    2.2   0.85   0.88    0.00    0.00   0.71   0.80   0.96   0.96   3.33   7.42
 2025 139   210   208   20.8    0.0   0.00   1.63   24.0    9.6    3.7    2.2   0.82   0.88    0.00    0.00   0.69   0.79   0.96   0.96   3.41   7.45
 2025 140   211   209   21.1    0.0   0.00   1.60   24.4    9.6    4.0    2.2   0.80   0.88    0.00    0.00   0.68   0.79   0.95   0.95   3.49   7.48
 2025 141   212   210   21.4    0.0   0.00   1.59   24.9    9.6    4.3    2.2   0.81   0.89    0.00    0.00   0.67   0.78   0.95   0.95   3.58   7.50
 2025 142   213   211   21.6    0.0   0.00   1.58   25.3    9.6    4.5    2.2   0.82   0.91    0.00    0.00   0.65   0.77   0.95   0.95   3.67   7.52
 2025 143   214   212   21.9    0.0   0.00   1.55   25.7    9.6    4.8    2.2   0.81   0.91    0.00    0.00   0.62   0.75   0.94   0.94   3.75   7.53
 2025 144   215   213   22.2    0.0   0.00   1.52   26.1    9.6    5.1    2.2   0.79   0.91    0.00    0.00   0.62   0.75   0.94   0.94   3.83   7.54
 2025 145   216   214   22.6    0.0   0.00   1.52   26.6    9.6    5.4    2.2   0.82   0.93    0.00    0.00   0.62   0.75   0.94   0.94   3.95   7.54
 2025 146   217   215   23.0    0.0   0.00   1.49   27.2    9.6    5.8    2.2   0.81   0.94    0.00    0.00   0.54   0.70   0.91   0.91   4.08   7.54
 2025 147   218   216   23.3    0.0   0.00   1.47   27.7    9.6    6.2    2.2   0.81   0.94    0.00    0.00   0.54   0.69   0.91   0.91   4.19   7.54
 2025 148   219   217   23.7    0.0   0.00   1.47   28.3    9.6    6.6    2.2   0.83   0.97    0.00    0.00   0.51   0.67   0.89   0.89   4.32   7.54
 2025 149   220   218   24.1    0.0   0.00   1.44   28.8    9.6    7.0    2.2   0.82   0.97    0.00    0.00   0.42   0.61   0.85   0.85   4.44   7.54
 2025 150   221   219   24.5    0.0   0.00   1.41   29.3    9.6    7.3    2.2   0.79   0.96    0.00    0.00   0.36   0.57   0.82   0.82   4.54   7.54
 2025 151   222   220   24.8    0.0   0.00   1.37   29.8    9.6    7.7    2.2   0.77   0.95    0.00    0.00   0.33   0.55   0.80   0.80   4.63   7.54
 2025 152   223   221   25.1    0.0   0.00   1.34   30.3    9.6    8.0    2.2   0.75   0.96    0.00    0.00   0.28   0.52   0.77   0.77   4.74   7.54
 2025 153   224   222   25.5    0.0   0.00   1.33   30.9    9.6    8.4    2.2   0.76   0.98    0.00    0.00   0.23   0.49   0.74   0.74   4.86   7.54
 2025 154   225   223   26.0    0.0   0.00   1.29   31.6    9.6    8.9    2.2   0.74   0.99    0.00    0.00   0.02   0.34   0.57   0.57   5.02   7.54
 2025 155   226   224   26.5    0.0   0.00   1.26   32.2    9.6    9.3    2.2   0.73   1.01    0.00    0.00   0.00   0.24   0.42   0.42   5.18   7.54
 2025 156   227   225   27.0    0.0   0.00   1.24   32.9    9.6    9.8    2.2   0.72   1.04    0.00    0.00   0.00   0.08   0.15   0.15   5.35   7.54
 2025 157   228   226   27.4    0.0   0.00   1.21   33.6    9.6   10.3    2.2   0.71   1.06    0.00    0.00   0.00   0.00   0.00   0.00   5.52   7.54
 2025 158   229   227   27.9    0.0   0.00   1.20   34.3    9.6   10.7    2.2   0.71   1.09    0.00    0.00   0.00   0.00   0.00   0.00   5.71   7.54
 2025 159   230   228   28.3    0.0   0.00   1.17   35.0    9.6   11.2    2.2   0.70   1.12    0.00    0.00   0.00   0.00   0.00   0.00   5.90   7.54
 2025 160   231   229   28.8    0.0   0.00   1.14   35.8    9.6   11.7    2.2   0.68   1.14    0.00    0.00   0.00   0.00   0.00   0.00   6.10   7.54
 2025 161   232   230   29.3    0.0   0.00   1.11   36.5    9.6   12.1    2.2   0.66   1.16    0.00    0.00   0.00   0.00   0.00   0.00   6.29   7.54
 2025 162   233   231   29.6    0.0   0.00   1.07   37.1    9.6   12.5    2.2   0.64   1.17    0.00    0.00   0.00   0.00   0.00   0.00   6.46   7.54
 2025 163   234   232   30.0    0.0   0.00   1.04   37.6    9.6   12.8    2.2   0.62   1.18    0.00    0.00   0.00   0.00   0.00   0.00   6.61   7.54
 2025 164   235   233   30.2    6.9   2.82   0.85   38.1    7.6   13.0    1.7   0.68   1.21    0.00    0.00   0.00   0.00   0.00   0.00   6.85   2.67
 2025 165   236   234   30.3    8.6   2.77   0.79   38.6    6.0   13.1    1.4   0.68   1.24    0.00    0.00   0.00   0.00   0.00   0.00   7.09   2.66
 2025 166   237   235   30.5    9.8   2.49   0.76   39.2    4.9   13.1    1.1   0.69   1.30    0.00    0.00   0.00   0.00   0.00   0.00   7.48   2.63
 2025 167   238   236   30.6   10.9   2.28   0.73   39.8    4.2   12.9    1.0   0.68   1.35    0.00    0.00   0.00   0.00   0.00   0.00   7.86   2.59
 2025 168   239   237   30.8   11.9   2.17   0.69   40.3    3.7   12.7    0.8   0.66   1.37    0.00    0.00   0.00   0.00   0.00   0.00   8.09   2.55
 2025 169   240   238   31.1   12.7   2.07   0.67   40.8    3.3   12.5    0.8   0.65   1.38    0.00    0.00   0.00   0.00   0.00   0.00   8.25   2.50
 2025 170   241   239   31.3   13.5   1.99   0.65   41.3    3.1   12.3    0.7   0.63   1.39    0.00    0.00   0.00   0.00   0.00   0.00   8.37   2.44
 2025 171   242   240   31.6   14.2   1.93   0.63   41.7    2.9   12.1    0.7   0.62   1.38    0.00    0.00   0.00   0.00   0.00   0.00   8.44   2.38
 2025 172   243   241   31.9   14.9   1.88   0.61   42.1    2.8   11.9    0.6   0.60   1.38    0.00    0.00   0.00   0.00   0.00   0.00   8.50   2.32
 2025 173   244   242   32.1   15.5   1.84   0.59   42.5    2.7   11.7    0.6   0.59   1.38    0.00    0.00   0.00   0.00   0.00   0.00   8.55   2.27
 2025 174   245   243   32.3   16.1   1.81   0.58   42.9    2.6   11.4    0.6   0.58   1.39    0.00    0.00   0.00   0.00   0.00   0.00   8.61   2.21
 2025 175   246   244   32.6   16.8   1.78   0.56   43.2    2.5   11.1    0.6   0.56   1.38    0.00    0.00   0.00   0.00   0.00   0.00   8.63   2.15
 2025 176   247   245   32.8   17.4   1.75   0.55   43.5    2.4   10.9    0.6   0.55   1.38    0.00    0.00   0.00   0.00   0.00   0.00   8.66   2.10
 2025 177   248   246   33.0   18.0   1.72   0.54   43.9    2.3   10.6    0.5   0.54   1.38    0.00    0.00   0.00   0.00   0.00   0.00   8.67   2.04
 2025 178   249   247   33.2   18.7   1.70   0.53   44.3    2.3   10.3    0.5   0.53   1.39    0.00    0.00   0.00   0.00   0.00   0.00   8.73   1.98
 2025 179   250   248   33.5   19.5   1.67   0.51   44.6    2.2    9.9    0.5   0.51   1.40    0.00    0.00   0.00   0.00   0.00   0.00   8.74   1.92
 2025 180   251   249   33.8   20.2   1.65   0.50   45.0    2.1    9.6    0.5   0.50   1.40    0.00    0.00   0.00   0.00   0.00   0.00   8.73   1.86
 2025 181   252   250   34.1   21.0   1.63   0.49   45.3    2.1    9.2    0.5   0.49   1.40    0.00    0.00   0.00   0.00   0.00   0.00   8.69   1.80
 2025 182   253   251   34.3   21.9   1.61   0.47   45.7    2.0    8.7    0.5   0.48   1.41    0.00    0.00   0.00   0.00   0.00   0.00   8.73   1.74
 2025 183   254   252   34.6   22.8   1.59   0.46   46.0    1.9    8.3    0.4   0.47   1.42    0.00    0.00   0.00   0.00   0.00   0.00   8.70   1.68
 2025 184   255   253   34.9   23.7   1.58   0.45   46.4    1.8    7.8    0.4   0.46   1.42    0.00    0.00   0.00   0.00   0.00   0.00   8.64   1.62
 2025 185   256   254   35.3   24.6   1.56   0.44   46.7    1.8    7.3    0.4   0.45   1.41    0.00    0.00   0.00   0.00   0.00   0.00   8.57   1.56
 2025 186   257   255   35.6   25.5   1.55   0.42   47.0    1.7    6.8    0.4   0.43   1.41    0.00    0.00   0.00   0.00   0.00   0.00   8.48   1.50
 2025 187   258   256   35.9   26.4   1.54   0.41   47.3    1.7    6.4    0.4   0.42   1.41    0.00    0.00   0.00   0.00   0.00   0.00   8.39   1.44
 2025 188   259   257   36.2   27.3   1.53   0.40   47.6    1.6    5.9    0.4   0.41   1.41    0.00    0.00   0.00   0.00   0.00   0.00   8.30   1.39
 2025 189   260   258   36.5   28.1   1.52   0.38   47.9    1.5    5.5    0.4   0.40   1.41    0.00    0.00   0.00   0.00   0.00   0.00   8.22   1.35
 2025 190   261   259   36.5   28.1   1.52   0.38   48.2    1.5    5.5    0.4   0.40   1.46    0.00    0.00   0.00   0.00   0.00   0.00   8.44   1.35
 2025 191   262   260   36.5   28.1   1.52   0.38   48.5    1.5    5.5    0.4   0.40   1.51    0.00    0.00   0.00   0.00   0.00   0.00   8.64   1.35
 2025 192   263   261   36.5   28.1   1.52   0.38   48.8    1.5    5.5    0.4   0.40   1.56    0.00    0.00   0.00   0.00   0.00   0.00   8.83   1.35
 2025 193   264   262   36.5   28.1   1.52   0.38   49.1    1.5    5.5    0.4   0.40   1.61    0.00    0.00   0.00   0.00   0.00   0.00   9.01   1.35
 2025 194   265   263   36.5   28.1   1.52   0.38   49.3    1.5    5.5    0.4   0.40   1.65    0.00    0.00   0.00   0.00   0.00   0.00   9.18   1.35
 2025 195   266   264   36.5   28.1   1.52   0.38   49.5    1.5    5.5    0.4   0.40   1.68    0.00    0.00   0.00   0.00   0.00   0.00   9.24   1.35
 2025 196   267   265   36.5   28.1   1.52   0.38   49.5    1.5    5.5    0.4   0.40   1.68    0.00    0.00   0.00   0.00   0.00   0.00   9.14   1.35
 2025 197   268   266   36.5   28.1   1.52   0.38   49.5    1.5    5.5    0.4   0.40   1.68    0.00    0.00   0.00   0.00   0.00   0.00   9.14   1.35
 2025 198   269   267   36.5   28.1   1.52   0.38   49.5    1.5    5.5    0.4   0.40   1.68    0.00    0.00   0.00   0.00   0.00   0.00   9.14   1.35
 2025 199   270   268   36.5   28.1   1.52   0.38   49.5    1.5    5.5    0.4   0.40   1.68    0.00    0.00   0.00   0.00   0.00   0.00   9.14   1.35
 2025 200   271   269   36.5   28.1   1.52   0.38   49.5    1.5    5.5    0.4   0.40   1.68    0.00    0.00   0.00   0.00   0.00   0.00   9.14   1.35
 2025 201   272   270   36.5   28.1   1.52   0.38   49.5    1.5    5.5    0.4   0.40   1.68    0.00    0.00   0.00   0.00   0.00   0.00   9.14   1.35
 2025 202   273   271   36.5   28.1   1.52   0.38   49.5    1.5    5.5    0.4   0.40   1.68    0.00    0.00   0.00   0.00   0.00   0.00   9.14   1.35
 2025 203   274   272   36.5   28.1   1.52   0.38   49.5    1.5    5.5    0.4   0.40   1.68    0.00    0.00   0.00   0.00   0.00   0.00   9.14   1.35
 2025 204   275   273   36.5   28.1   1.52   0.38   49.5    1.5    5.5    0.4   0.40   1.68    0.00    0.00   0.00   0.00   0.00   0.00   9.14   1.35
 2025 205   276   274   36.5   28.1   1.52   0.38   49.5    1.5    5.5    0.4   0.40   1.68    0.00    0.00   0.00   0.00   0.00   0.00   9.14   1.35
 2025 206   277   275   36.5   28.1   1.52   0.38   49.5    1.5    5.5    0.4   0.40   1.68    0.00    0.00   0.00   0.00   0.00   0.00   9.14   1.35
 2025 207   278   276   36.5   28.1   1.52   0.38   49.5    1.5    5.5    0.4   0.40   1.68    0.00    0.00   0.00   0.00   0.00   0.00   9.14   1.35
 2025 208   279   277   36.5   28.1   1.52   0.38   49.5    1.5    5.5    0.4   0.40   1.68    0.00    0.00   0.00   0.00   0.00   0.00   9.14   1.35
 2025 209   280   278   36.5   28.1   1.52   0.38   49.5    1.5    5.5    0.4   0.40   1.68    0.00    0.00   0.00   0.00   0.00   0.00   9.14   1.35
 2025 210   281   279   36.5   28.1   1.52   0.38   49.5    1.5    5.5    0.4   0.40   1.68    0.00    0.00   0.00   0.00   0.00   0.00   9.14   1.35
 2025 211   282   280   36.5   28.1   1.52   0.38   49.5    1.5    5.5    0.4   0.40   1.68    0.00    0.00   0.00   0.00   0.00   0.00   9.14   1.35
 2025 212   283   281   36.5   28.1   1.52   0.38   49.5    1.5    5.5    0.4   0.40   1.68    0.00    0.00   0.00   0.00   0.00   0.00   9.14   1.35
 2025 213   284   282   36.5   28.1   1.52   0.38   49.5    1.5    5.5    0.4   0.40   1.68    0.00    0.00   0.00   0.00   0.00   0.00   9.14   1.35
 2025 214   285   283   36.5   28.1   1.52   0.38   49.5    1.5    5.5    0.4   0.40   1.68    0.00    0.00   0.00   0.00   0.00   0.00   9.14   1.35
 2025 215   286   284   36.5   28.1   1.52   0.38   49.5    1.5    5.5    0.4   0.40   1.68    0.00    0.00   0.00   0.00   0.00   0.00   9.14   1.35
 2025 216   287   285   36.5   28.1   1.52   0.38   49.5    1.5    5.5    0.4   0.40   1.68    0.00    0.00   0.00   0.00   0.00   0.00   9.14   1.35
 2025 217   288   286   36.5   28.1   1.52   0.38   49.5    1.5    5.5    0.4   0.40   1.68    0.00    0.00   0.00   0.00   0.00   0.00   9.14   1.35
 2025 218   289   287   36.5   28.1   1.52   0.38   49.5    1.5    5.5    0.4   0.40   1.68    0.00    0.00   0.00   0.00   0.00   0.00   9.14   1.35
 2025 219   290   288   36.5   28.1   1.52   0.38   49.5    1.5    5.5    0.4   0.40   1.68    0.00    0.00   0.00   0.00   0.00   0.00   9.14   1.35
 2025 220   291   289   36.5   28.1   1.52   0.38   49.5    1.5    5.5    0.4   0.40   1.68    0.00    0.00   0.00   0.00   0.00   0.00   9.14   1.35
 2025 221   292   290   36.5   28.1   1.52   0.38   49.5    1.5    5.5    0.4   0.40   1.68    0.00    0.00   0.00   0.00   0.00   0.00   9.14   1.35

*DSSAT Cropping System Model Ver. 4.8.2.000 -release  JAN 23, 2026 17:32:35

*RUN   2        : 147 kg[N]/ha - broadcast  WHAPS048 HWOC2501    3
 MODEL          : WHAPS048 - Wheat
 EXPERIMENT     : HWOC2501 WH
 DATA PATH      : C:/DSSAT48/Wheat/
 TREATMENT  3   : 147 kg[N]/ha - broadcast  WHAPS048
  
@YEAR DOY   DAS   DAP   CNAD   GNAD   GN%D   VN%D   NUPC   LNAD   SNAD   LN%D   SN%D   RN%D   SNN0C   SNN1C NFact1 NFact2 NFact3 NFact4  RootN lfshthN
 2024 297     2     0    0.0    0.0   0.00   0.00    0.0    0.0    0.0    0.0   0.00   0.00    0.00    0.00   0.00   0.00   0.00   0.00   0.00   0.00
 2024 298     3     1    0.0    0.0   0.00   0.00    0.0    0.0    0.0    0.0   0.00   0.00    0.00    0.00   0.00   0.00   0.00   0.00   0.00   0.00
 2024 299     4     2    0.0    0.0   0.00   0.00    0.0    0.0    0.0    0.0   0.00   0.00    0.00    0.00   0.00   0.00   0.00   0.00   0.00   0.00
 2024 300     5     3    0.0    0.0   0.00   0.00    0.0    0.0    0.0    0.0   0.00   0.00    0.00    0.00   0.00   0.00   0.00   0.00   0.00   0.00
 2024 301     6     4    0.0    0.0   0.00   0.00    0.0    0.0    0.0    0.0   0.00   0.00    0.00    0.00   0.00   0.00   0.00   0.00   0.00   0.00
 2024 302     7     5    1.0    0.0   0.00   6.53    0.2    0.6    0.0    4.0   6.34   4.40    0.00    0.00   0.00   0.00   0.00   0.00   1.02   0.39
 2024 303     8     6    1.3    0.0   0.00   5.42    0.5    0.9    0.0    4.0   6.34   4.29    0.00    0.00   0.00   0.00   0.00   0.00   1.01   0.39
 2024 304     9     7    1.8    0.0   0.00   5.45    1.0    1.4    0.0    4.5   6.34   4.21    0.00    0.00   0.00   0.00   0.00   0.00   1.00   0.39
 2024 305    10     8    2.4    0.0   0.00   5.59    1.6    2.0    0.0    4.9   6.34   4.16    0.00    0.00   0.00   0.00   0.00   0.00   0.99   0.39
 2024 306    11     9    3.0    0.0   0.00   6.06    2.2    2.6    0.0    5.5   6.34   4.10    0.00    0.00   0.00   0.00   0.00   0.00   0.98   0.39
 2024 307    12    10    3.4    0.0   0.00   5.96    2.6    3.0    0.0    5.6   6.34   4.03    0.00    0.00   0.00   0.00   0.00   0.00   0.97   0.39
 2024 308    13    11    3.8    0.0   0.00   6.07    3.0    3.4    0.0    5.8   6.34   3.91    0.00    0.00   0.00   0.00   0.00   0.00   0.96   0.39
 2024 309    14    12    4.1    0.0   0.00   6.41    3.3    3.7    0.0    6.2   6.34   3.80    0.00    0.00   0.00   0.00   0.00   0.00   0.95   0.39
 2024 310    15    13    4.2    0.0   0.00   6.42    3.4    3.7    0.0    6.3   6.34   3.75    0.00    0.00   0.00   0.00   0.00   0.00   0.94   0.39
 2024 311    16    14    4.2    0.0   0.00   6.38    3.4    3.8    0.0    6.3   6.34   3.71    0.00    0.00   0.00   0.00   0.00   0.00   0.93   0.39
 2024 312    17    15    4.2    0.0   0.00   6.33    3.4    3.8    0.0    6.3   6.34   3.66    0.00    0.00   0.00   0.00   0.00   0.00   0.92   0.39
 2024 313    18    16    4.2    0.0   0.00   6.30    3.4    3.8    0.0    6.3   6.34   3.61    0.00    0.00   0.00   0.00   0.00   0.00   0.91   0.39
 2024 314    19    17    4.2    0.0   0.00   6.25    3.4    3.8    0.0    6.3   6.34   3.56    0.00    0.00   0.00   0.00   0.00   0.00   0.90   0.39
 2024 315    20    18    4.3    0.0   0.00   6.25    3.5    3.8    0.0    6.3   6.34   3.52    0.00    0.00   0.00   0.00   0.00   0.00   0.89   0.42
 2024 316    21    19    4.3    0.0   0.00   6.27    3.5    3.9    0.0    6.3   6.34   3.49    0.00    0.00   0.00   0.00   0.00   0.00   0.88   0.44
 2024 317    22    20    4.4    0.0   0.00   6.23    3.6    3.9    0.0    6.3   6.34   3.44    0.00    0.00   0.00   0.00   0.00   0.00   0.87   0.45
 2024 318    23    21    4.4    0.0   0.00   6.27    3.6    3.9    0.0    6.3   6.34   3.42    0.00    0.00   0.00   0.00   0.00   0.00   0.86   0.48
 2024 319    24    22    4.4    0.0   0.00   6.24    3.6    3.9    0.0    6.3   6.34   3.38    0.00    0.00   0.00   0.00   0.00   0.00   0.86   0.49
 2024 320    25    23    4.5    0.0   0.00   6.21    3.7    3.9    0.0    6.2   6.34   3.33    0.00    0.00   0.00   0.00   0.00   0.00   0.85   0.51
 2024 321    26    24    4.5    0.0   0.00   6.16    3.7    4.0    0.0    6.2   6.34   3.25    0.00    0.00   0.00   0.00   0.00   0.00   0.84   0.54
 2024 322    27    25    4.6    0.0   0.00   6.22    3.8    4.0    0.0    6.2   6.34   3.22    0.00    0.00   0.00   0.00   0.00   0.00   0.83   0.58
 2024 323    28    26    4.6    0.0   0.00   6.21    3.8    4.0    0.0    6.2   6.34   3.18    0.00    0.00   0.00   0.00   0.00   0.00   0.82   0.60
 2024 324    29    27    4.7    0.0   0.00   6.16    3.9    4.0    0.0    6.2   6.34   3.13    0.00    0.00   0.00   0.00   0.00   0.00   0.81   0.62
 2024 325    30    28    4.7    0.0   0.00   6.17    3.9    4.0    0.0    6.2   6.34   3.08    0.00    0.00   0.00   0.00   0.00   0.00   0.81   0.65
 2024 326    31    29    4.8    0.0   0.00   6.24    4.0    4.1    0.0    6.2   6.34   3.08    0.00    0.00   0.00   0.00   0.00   0.00   0.80   0.68
 2024 327    32    30    4.8    0.0   0.00   6.24    4.0    4.1    0.0    6.2   6.34   3.08    0.00    0.00   0.00   0.00   0.00   0.00   0.79   0.68
 2024 328    33    31    4.8    0.0   0.00   6.16    4.0    4.1    0.0    6.2   6.34   3.03    0.00    0.00   0.00   0.00   0.00   0.00   0.78   0.68
 2024 329    34    32    4.8    0.0   0.00   6.07    4.0    4.1    0.0    6.1   6.34   2.95    0.00    0.00   0.00   0.00   0.00   0.00   0.77   0.70
 2024 330    35    33    4.9    0.0   0.00   6.01    4.1    4.1    0.0    6.1   6.34   2.84    0.00    0.00   0.00   0.00   0.00   0.00   0.77   0.76
 2024 331    36    34    5.0    0.0   0.00   6.05    4.2    4.2    0.0    6.1   6.34   2.77    0.00    0.00   0.00   0.00   0.00   0.00   0.76   0.82
 2024 332    37    35    5.1    0.0   0.00   5.99    4.3    4.2    0.0    6.1   6.34   2.68    0.00    0.00   0.00   0.00   0.00   0.00   0.75   0.87
 2024 333    38    36    5.2    0.0   0.00   6.02    4.4    4.3    0.0    6.1   6.34   2.61    0.00    0.00   0.00   0.00   0.00   0.00   0.74   0.94
 2024 334    39    37    5.3    0.0   0.00   6.05    4.5    4.3    0.0    6.1   6.34   2.57    0.00    0.00   0.00   0.00   0.00   0.00   0.74   0.98
 2024 335    40    38    5.4    0.0   0.00   6.02    4.6    4.3    0.0    6.1   6.34   2.45    0.00    0.00   0.00   0.00   0.00   0.00   0.73   1.01
 2024 336    41    39    5.5    0.0   0.00   6.12    4.7    4.4    0.0    6.1   6.34   2.45    0.00    0.00   0.00   0.00   0.00   0.00   0.72   1.06
 2024 337    42    40    5.5    0.0   0.00   6.06    4.7    4.4    0.0    6.1   6.34   2.42    0.00    0.00   0.00   0.00   0.00   0.00   0.71   1.06
 2024 338    43    41    5.5    0.0   0.00   6.03    4.7    4.4    0.0    6.1   6.34   2.39    0.00    0.00   0.00   0.01   0.02   0.02   0.71   1.08
 2024 339    44    42    5.5    0.0   0.00   6.06    4.7    4.4    0.0    6.1   6.34   2.35    0.00    0.00   0.00   0.02   0.03   0.03   0.70   1.11
 2024 340    45    43    5.6    0.0   0.00   6.09    4.8    4.4    0.0    6.1   6.34   2.35    0.00    0.00   0.00   0.01   0.01   0.01   0.69   1.12
 2024 341    46    44    5.6    0.0   0.00   6.03    4.8    4.4    0.0    6.1   6.34   2.32    0.00    0.00   0.00   0.00   0.00   0.00   0.69   1.12
 2024 342    47    45    5.6    0.0   0.00   6.03    4.8    4.4    0.0    6.0   6.34   2.30    0.00    0.00   0.00   0.01   0.02   0.02   0.68   1.14
 2024 343    48    46    5.6    0.0   0.00   5.99    4.8    4.5    0.0    6.0   6.34   2.27    0.00    0.00   0.00   0.01   0.02   0.02   0.67   1.16
 2024 344    49    47    5.7    0.0   0.00   6.02    4.9    4.5    0.0    6.0   6.34   2.25    0.00    0.00   0.00   0.02   0.03   0.03   0.67   1.19
 2024 345    50    48    5.7    0.0   0.00   6.04    4.9    4.5    0.0    6.0   6.34   2.24    0.00    0.00   0.00   0.01   0.01   0.01   0.66   1.20
 2024 346    51    49    5.7    0.0   0.00   6.04    4.9    4.5    0.0    6.0   6.34   2.23    0.00    0.00   0.00   0.00   0.00   0.00   0.65   1.21
 2024 347    52    50    5.7    0.0   0.00   6.04    4.9    4.5    0.0    6.0   6.34   2.23    0.00    0.00   0.00   0.00   0.00   0.00   0.65   1.21
 2024 348    53    51    5.7    0.0   0.00   6.04    4.9    4.5    0.0    6.0   6.34   2.23    0.00    0.00   0.00   0.00   0.00   0.00   0.64   1.21
 2024 349    54    52    5.7    0.0   0.00   6.04    4.9    4.5    0.0    6.0   6.34   2.23    0.00    0.00   0.00   0.00   0.00   0.00   0.63   1.21
 2024 350    55    53    5.7    0.0   0.00   6.01    4.9    4.5    0.0    6.0   6.34   2.21    0.00    0.00   0.00   0.00   0.00   0.00   0.63   1.21
 2024 351    56    54    5.7    0.0   0.00   5.96    4.9    4.5    0.0    6.0   6.34   2.18    0.00    0.00   0.00   0.00   0.01   0.01   0.62   1.22
 2024 352    57    55    5.8    0.0   0.00   5.94    5.0    4.5    0.0    6.0   6.34   2.14    0.00    0.00   0.00   0.01   0.03   0.03   0.61   1.25
 2024 353    58    56    5.8    0.0   0.00   5.89    5.0    4.5    0.0    5.9   6.34   2.09    0.00    0.00   0.00   0.02   0.03   0.03   0.61   1.27
 2024 354    59    57    5.9    0.0   0.00   5.83    5.1    4.5    0.0    5.9   6.34   2.04    0.00    0.00   0.00   0.02   0.05   0.05   0.60   1.30
 2024 355    60    58    5.9    0.0   0.00   5.85    5.1    4.6    0.0    5.9   6.34   2.02    0.00    0.00   0.00   0.04   0.08   0.08   0.60   1.32
 2024 356    61    59    5.9    0.0   0.00   5.83    5.1    4.6    0.0    5.9   6.34   2.00    0.00    0.00   0.00   0.03   0.06   0.06   0.59   1.33
 2024 357    62    60    6.0    0.0   0.00   5.82    5.2    4.6    0.0    5.9   6.34   1.98    0.00    0.00   0.00   0.03   0.07   0.07   0.58   1.35
 2024 358    63    61    6.0    0.0   0.00   5.83    5.2    4.6    0.0    5.9   6.34   1.97    0.00    0.00   0.00   0.04   0.07   0.07   0.58   1.36
 2024 359    64    62    6.0    0.0   0.00   5.80    5.2    4.6    0.0    5.9   6.34   1.95    0.00    0.00   0.00   0.03   0.06   0.06   0.58   1.37
 2024 360    65    63    6.0    0.0   0.00   5.79    5.2    4.6    0.0    5.8   6.34   1.92    0.00    0.00   0.00   0.04   0.08   0.08   0.57   1.38
 2024 361    66    64    6.1    0.0   0.00   5.81    5.3    4.6    0.0    5.9   6.34   1.92    0.00    0.00   0.00   0.04   0.08   0.08   0.57   1.40
 2024 362    67    65    6.1    0.0   0.00   5.83    5.3    4.6    0.0    5.9   6.34   1.93    0.00    0.00   0.00   0.04   0.07   0.07   0.56   1.41
 2024 363    68    66    6.1    0.0   0.00   5.85    5.3    4.7    0.0    5.9   6.34   1.93    0.00    0.00   0.00   0.03   0.06   0.06   0.56   1.42
 2024 364    69    67    6.1    0.0   0.00   5.88    5.3    4.7    0.0    5.9   6.34   1.93    0.00    0.00   0.00   0.02   0.04   0.04   0.55   1.43
 2024 365    70    68    6.1    0.0   0.00   5.90    5.4    4.7    0.0    5.9   6.34   1.93    0.00    0.00   0.00   0.02   0.03   0.03   0.55   1.45
 2024 366    71    69    6.2    0.0   0.00   5.92    5.4    4.7    0.0    5.9   6.34   1.94    0.00    0.00   0.00   0.01   0.02   0.02   0.54   1.46
 2025 001    72    70    6.2    0.0   0.00   5.92    5.4    4.7    0.0    5.9   6.34   1.98    0.00    0.00   0.00   0.00   0.00   0.00   0.55   1.46
 2025 002    73    71    6.2    0.0   0.00   5.89    5.4    4.7    0.0    5.9   6.34   1.99    0.00    0.00   0.00   0.00   0.00   0.00   0.56   1.47
 2025 003    74    72    6.2    0.0   0.00   5.90    5.4    4.7    0.0    5.9   6.34   1.99    0.00    0.00   0.00   0.01   0.02   0.02   0.55   1.48
 2025 004    75    73    6.2    0.0   0.00   5.92    5.4    4.7    0.0    5.9   6.34   1.99    0.00    0.00   0.00   0.00   0.01   0.01   0.54   1.48
 2025 005    76    74    6.2    0.0   0.00   5.91    5.4    4.7    0.0    5.9   6.34   1.98    0.00    0.00   0.00   0.00   0.00   0.00   0.54   1.48
 2025 006    77    75    6.2    0.0   0.00   5.83    5.4    4.7    0.0    5.9   6.34   1.96    0.00    0.00   0.00   0.00   0.00   0.00   0.54   1.49
 2025 007    78    76    6.2    0.0   0.00   5.75    5.5    4.7    0.0    5.8   6.34   1.92    0.00    0.00   0.00   0.02   0.04   0.04   0.54   1.49
 2025 008    79    77    6.2    0.0   0.00   5.72    5.5    4.7    0.0    5.8   6.34   1.90    0.00    0.00   0.00   0.04   0.08   0.08   0.53   1.50
 2025 009    80    78    6.2    0.0   0.00   5.63    5.5    4.7    0.0    5.7   6.34   1.86    0.00    0.00   0.00   0.04   0.09   0.09   0.53   1.50
 2025 010    81    79    6.2    0.0   0.00   5.64    5.5    4.7    0.0    5.7   6.34   1.86    0.00    0.00   0.00   0.07   0.13   0.13   0.52   1.50
 2025 011    82    80    6.2    0.0   0.00   5.65    5.5    4.7    0.0    5.7   6.34   1.86    0.00    0.00   0.00   0.07   0.13   0.13   0.52   1.51
 2025 012    83    81    6.3    0.0   0.00   5.65    5.5    4.7    0.0    5.7   6.34   1.86    0.00    0.00   0.00   0.07   0.13   0.13   0.52   1.51
 2025 013    84    82    6.3    0.0   0.00   5.66    5.5    4.7    0.0    5.7   6.34   1.87    0.00    0.00   0.00   0.06   0.12   0.12   0.51   1.52
 2025 014    85    83    6.3    0.0   0.00   5.67    5.5    4.7    0.0    5.7   6.34   1.87    0.00    0.00   0.00   0.06   0.12   0.12   0.51   1.52
 2025 015    86    84    6.3    0.0   0.00   5.67    5.5    4.7    0.0    5.7   6.34   1.87    0.00    0.00   0.00   0.06   0.11   0.11   0.50   1.52
 2025 016    87    85    6.3    0.0   0.00   5.65    5.5    4.7    0.0    5.7   6.34   1.83    0.00    0.00   0.00   0.06   0.11   0.11   0.50   1.53
 2025 017    88    86    6.3    0.0   0.00   5.65    5.5    4.7    0.0    5.7   6.34   1.84    0.00    0.00   0.00   0.06   0.12   0.12   0.49   1.53
 2025 018    89    87    6.3    0.0   0.00   5.66    5.5    4.7    0.0    5.7   6.34   1.84    0.00    0.00   0.00   0.06   0.12   0.12   0.49   1.53
 2025 019    90    88    6.3    0.0   0.00   5.67    5.6    4.7    0.0    5.7   6.34   1.84    0.00    0.00   0.00   0.06   0.11   0.11   0.49   1.54
 2025 020    91    89    6.3    0.0   0.00   5.64    5.6    4.7    0.0    5.7   6.34   1.81    0.00    0.00   0.00   0.05   0.10   0.10   0.48   1.54
 2025 021    92    90    6.3    0.0   0.00   5.65    5.6    4.7    0.0    5.7   6.34   1.81    0.00    0.00   0.00   0.06   0.12   0.12   0.48   1.55
 2025 022    93    91    6.3    0.0   0.00   5.65    5.6    4.8    0.0    5.7   6.34   1.82    0.00    0.00   0.00   0.06   0.11   0.11   0.48   1.55
 2025 023    94    92    6.3    0.0   0.00   5.60    5.6    4.8    0.0    5.7   6.34   1.78    0.00    0.00   0.00   0.05   0.10   0.10   0.47   1.55
 2025 024    95    93    6.3    0.0   0.00   5.48    5.6    4.8    0.0    5.6   6.34   1.72    0.00    0.00   0.00   0.07   0.13   0.13   0.47   1.56
 2025 025    96    94    6.3    0.0   0.00   5.31    5.6    4.8    0.0    5.5   6.34   1.62    0.00    0.00   0.00   0.10   0.18   0.18   0.46   1.56
 2025 026    97    95    6.4    0.0   0.00   5.22    5.6    4.8    0.0    5.4   6.34   1.57    0.00    0.00   0.00   0.14   0.27   0.27   0.46   1.57
 2025 027    98    96    6.4    0.0   0.00   5.12    5.6    4.8    0.0    5.3   6.34   1.52    0.00    0.00   0.00   0.17   0.31   0.31   0.46   1.57
 2025 028    99    97    6.4    0.0   0.00   5.08    5.6    4.8    0.0    5.3   6.34   1.50    0.00    0.00   0.00   0.19   0.35   0.35   0.45   1.57
 2025 029   100    98    6.4    0.0   0.00   4.94    5.6    4.8    0.0    5.2   6.34   1.43    0.00    0.00   0.00   0.20   0.36   0.36   0.45   1.58
 2025 030   101    99    6.4    0.0   0.00   4.81    5.6    4.8    0.0    5.1   6.34   1.36    0.00    0.00   0.00   0.24   0.42   0.42   0.45   1.58
 2025 031   102   100    6.4    0.0   0.00   4.78    5.7    4.8    0.0    5.1   6.34   1.33    0.00    0.00   0.00   0.28   0.48   0.48   0.44   1.59
 2025 032   103   101    6.4    0.0   0.00   4.79    5.7    4.8    0.0    5.1   6.34   1.33    0.00    0.00   0.00   0.28   0.49   0.49   0.44   1.59
 2025 033   104   102    6.4    0.0   0.00   4.78    5.7    4.8    0.0    5.1   6.34   1.33    0.00    0.00   0.00   0.28   0.48   0.48   0.44   1.60
 2025 034   105   103    6.4    0.0   0.00   4.79    5.7    4.8    0.0    5.1   6.34   1.33    0.00    0.00   0.00   0.28   0.48   0.48   0.43   1.60
 2025 035   106   104    6.4    0.0   0.00   4.80    5.7    4.8    0.0    5.1   6.34   1.33    0.00    0.00   0.00   0.28   0.48   0.48   0.43   1.60
 2025 036   107   105    6.4    0.0   0.00   4.80    5.7    4.8    0.0    5.1   6.34   1.34    0.00    0.00   0.00   0.28   0.48   0.48   0.43   1.61
 2025 037   108   106    6.4    0.0   0.00   4.79    5.7    4.8    0.0    5.1   6.34   1.32    0.00    0.00   0.00   0.27   0.47   0.47   0.43   1.61
 2025 038   109   107    6.5    0.0   0.00   4.79    5.7    4.8    0.0    5.1   6.34   1.31    0.00    0.00   0.00   0.27   0.47   0.47   0.42   1.62
 2025 039   110   108    6.5    0.0   0.00   4.73    5.7    4.8    0.0    5.1   6.34   1.25    0.00    0.00   0.00   0.27   0.47   0.47   0.42   1.62
 2025 040   111   109    6.5    0.0   0.00   4.72    5.7    4.8    0.0    5.0   6.34   1.23    0.00    0.00   0.00   0.29   0.50   0.50   0.42   1.63
 2025 041   112   110    6.5    0.0   0.00   4.63    5.8    4.8    0.0    5.0   6.34   1.14    0.00    0.00   0.00   0.29   0.50   0.50   0.42   1.63
 2025 042   113   111    6.5    0.0   0.00   4.61    5.8    4.8    0.0    5.0   6.34   1.13    0.00    0.00   0.00   0.32   0.54   0.54   0.41   1.64
 2025 043   114   112    6.5    0.0   0.00   4.51    5.8    4.8    0.0    4.9   6.34   1.09    0.00    0.00   0.00   0.32   0.54   0.54   0.41   1.64
 2025 044   115   113    6.5    0.0   0.00   4.52    5.8    4.8    0.0    4.9   6.34   1.09    0.00    0.00   0.02   0.35   0.58   0.58   0.41   1.65
 2025 045   116   114    6.5    0.0   0.00   4.52    5.8    4.8    0.0    4.9   6.34   1.10    0.00    0.00   0.02   0.35   0.57   0.57   0.41   1.65
 2025 046   117   115    6.5    0.0   0.00   4.53    5.8    4.8    0.0    4.9   6.34   1.10    0.00    0.00   0.02   0.35   0.57   0.57   0.40   1.66
 2025 047   118   116    6.5    0.0   0.00   4.53    5.8    4.8    0.0    4.9   6.34   1.11    0.00    0.00   0.02   0.34   0.57   0.57   0.40   1.66
 2025 048   119   117    6.5    0.0   0.00   4.54    5.8    4.9    0.0    4.9   6.34   1.11    0.00    0.00   0.01   0.34   0.57   0.57   0.40   1.66
 2025 049   120   118    6.5    0.0   0.00   4.54    5.8    4.9    0.0    4.9   6.34   1.11    0.00    0.00   0.01   0.34   0.57   0.57   0.40   1.67
 2025 050   121   119    6.6    0.0   0.00   4.55    5.8    4.9    0.0    4.9   6.34   1.12    0.00    0.00   0.01   0.34   0.56   0.56   0.39   1.67
 2025 051   122   120    6.6    0.0   0.00   4.54    5.9    4.9    0.0    4.9   6.34   1.11    0.00    0.00   0.00   0.34   0.56   0.56   0.39   1.67
 2025 052   123   121    6.6    0.0   0.00   4.25    5.9    4.9    0.0    4.7   6.34   0.99    0.00    0.00   0.00   0.33   0.55   0.55   0.39   1.68
 2025 053   124   122    6.6    0.0   0.00   4.04    5.9    4.9    0.0    4.5   6.34   0.91    0.00    0.00   0.13   0.42   0.66   0.66   0.38   1.68
 2025 054   125   123    6.6    0.0   0.00   3.84    5.9    4.9    0.0    4.3   6.34   0.84    0.00    0.00   0.22   0.48   0.73   0.73   0.38   1.69
 2025 055   126   124    6.6    0.0   0.00   3.68    5.9    4.9    0.0    4.2   6.34   0.79    0.00    0.00   0.31   0.54   0.79   0.79   0.38   1.69
 2025 056   127   125    6.6    0.0   0.00   3.53    5.9    4.9    0.0    4.1   6.34   0.74    0.00    0.00   0.38   0.58   0.83   0.83   0.38   1.70
 2025 057   128   126    6.6    0.0   0.00   3.50    5.9    4.9    0.0    4.0   6.34   0.73    0.00    0.00   0.44   0.63   0.86   0.86   0.38   1.71
 2025 058   129   127    6.6    0.0   0.00   3.43    5.9    4.9    0.0    4.0   6.34   0.71    0.00    0.00   0.46   0.64   0.87   0.87   0.38   1.72
 2025 059   130   128    6.7    0.0   0.00   3.40    6.0    4.9    0.0    3.9   6.34   0.69    0.00    0.00   0.48   0.66   0.88   0.88   0.37   1.72
 2025 060   131   129    6.7    0.0   0.00   3.36    6.0    4.9    0.0    3.9   6.34   0.66    0.00    0.00   0.50   0.67   0.89   0.89   0.37   1.73
 2025 061   132   130    6.7    0.0   0.00   3.28    6.0    4.9    0.0    3.8   6.34   0.61    0.00    0.00   0.51   0.68   0.89   0.89   0.37   1.74
 2025 062   133   131    6.7    0.0   0.00   3.29    6.0    4.9    0.0    3.8   6.34   0.62    0.00    0.00   0.55   0.70   0.91   0.91   0.37   1.75
 2025 063   134   132    6.7    0.0   0.00   3.17    6.0    4.9    0.0    3.7   6.34   0.59    0.00    0.00   0.54   0.69   0.91   0.91   0.37   1.76
 2025 064   135   133    6.7    0.0   0.00   3.04    6.1    4.9    0.0    3.6   6.34   0.56    0.00    0.00   0.59   0.73   0.93   0.93   0.37   1.77
 2025 065   136   134    8.0    0.0   0.00   3.46    7.6    5.6    0.0    3.9   6.34   0.83    0.00    0.00   0.65   0.77   0.95   0.95   0.59   2.44
 2025 066   137   135    9.4    0.0   0.00   3.76    9.1    6.2    0.0    4.1   6.34   1.04    0.00    0.00   0.43   0.62   0.86   0.86   0.81   3.13
 2025 067   138   136   10.6    0.0   0.00   3.87   10.5    6.8    0.0    4.1   6.34   1.15    0.00    0.00   0.27   0.51   0.76   0.76   1.00   3.75
 2025 068   139   137   11.5    0.0   0.00   3.83   11.7    7.3    0.0    4.1   6.34   1.17    0.00    0.00   0.20   0.47   0.72   0.72   1.16   4.26
 2025 069   140   138   13.7    0.0   0.00   4.18   14.2    8.3    0.0    4.4   6.34   1.39    0.00    0.00   0.21   0.47   0.72   0.72   1.51   5.38
 2025 070   141   139   15.8    0.0   0.00   4.43   16.7    9.3    0.0    4.5   6.34   1.52    0.00    0.00   0.01   0.34   0.57   0.57   1.86   6.43
 2025 071   142   140   19.6    0.0   0.00   5.27   21.2   11.2    0.0    5.2   6.34   1.97    0.00    0.00   0.00   0.25   0.44   0.44   2.57   8.37
 2025 072   143   141   19.8    0.0   0.00   5.22   21.6   11.3    0.0    5.2   6.34   1.99    0.00    0.00   0.00   0.00   0.00   0.00   2.72   8.49
 2025 073   144   142   20.4    0.0   0.00   5.21   22.5   11.6    0.0    5.2   6.34   2.00    0.00    0.00   0.00   0.00   0.00   0.00   2.96   8.82
 2025 074   145   143   21.1    0.0   0.00   5.20   23.5   11.9    0.0    5.2   6.34   2.00    0.00    0.00   0.00   0.00   0.00   0.00   3.21   9.16
 2025 075   146   144   21.6    0.0   0.00   5.16   24.2   12.2    0.0    5.2   6.34   1.98    0.00    0.00   0.00   0.00   0.00   0.00   3.40   9.43
 2025 076   147   145   24.3    0.0   0.00   5.80   27.3   13.5    0.0    5.7   6.34   2.19    0.00    0.00   0.00   0.00   0.00   0.00   3.73  10.78
 2025 077   148   146   24.5    0.0   0.00   5.84   27.5   13.6    0.0    5.8   6.34   2.21    0.00    0.00   0.00   0.00   0.00   0.00   3.73  10.87
 2025 078   149   147   24.6    0.0   0.00   5.85   27.6   13.6    0.0    5.8   6.34   2.22    0.00    0.00   0.00   0.00   0.00   0.00   3.72  10.90
 2025 079   150   148   24.6    0.0   0.00   5.21   27.8   13.6    0.0    5.2   6.34   1.92    0.00    0.00   0.00   0.00   0.00   0.00   3.88  10.90
 2025 080   151   149   26.3    0.0   0.00   4.91   30.1   14.5    0.0    4.9   6.34   1.85    0.00    0.00   0.00   0.00   0.00   0.00   4.36  11.81
 2025 081   152   150   27.7    0.0   0.00   4.61   31.7   15.2    0.0    4.6   6.34   1.73    0.00    0.00   0.00   0.01   0.01   0.01   4.61  12.49
 2025 082   153   151   32.2    0.0   0.00   4.97   37.7   17.4    0.0    5.0   6.34   1.94    0.00    0.00   0.00   0.11   0.20   0.20   5.99  14.78
 2025 083   154   152   34.5    0.0   0.00   4.92   40.4   18.6    0.0    4.9   6.34   1.91    0.00    0.00   0.00   0.00   0.00   0.00   6.27  15.94
 2025 084   155   153   37.4    0.0   0.00   4.87   44.2   20.0    0.0    4.9   6.34   1.92    0.00    0.00   0.00   0.00   0.00   0.00   7.24  17.37
 2025 085   156   154   39.0    0.0   0.00   4.87   46.6   20.8    0.0    4.9   6.34   1.94    0.00    0.00   0.00   0.00   0.00   0.00   7.86  18.19
 2025 086   157   155   40.4    0.0   0.00   4.82   48.6   21.5    0.0    4.8   6.34   1.92    0.00    0.00   0.00   0.00   0.00   0.00   8.42  18.89
 2025 087   158   156   42.0    0.0   0.00   4.78   51.0   22.3    0.0    4.8   6.34   1.91    0.00    0.00   0.00   0.00   0.00   0.00   9.10  19.72
 2025 088   159   157   44.2    0.0   0.00   4.76   54.2   23.4    0.0    4.8   6.34   1.92    0.00    0.00   0.00   0.00   0.00   0.00   9.98  20.82
 2025 089   160   158   45.2    0.0   0.00   4.73   55.7   23.9    0.0    4.7   6.34   1.91    0.00    0.00   0.00   0.00   0.00   0.00  10.38  21.34
 2025 090   161   159   46.2    0.0   0.00   4.71   57.1   24.3    0.0    4.7   6.34   1.92    0.00    0.00   0.00   0.00   0.00   0.00  10.73  21.81
 2025 091   162   160   47.0    0.0   0.00   4.69   58.4   24.8    0.0    4.7   6.34   1.91    0.00    0.00   0.00   0.00   0.00   0.00  11.05  22.25
 2025 092   163   161   48.9    0.0   0.00   4.64   61.1   25.7    0.0    4.6   6.34   1.90    0.00    0.00   0.00   0.00   0.00   0.00  11.82  23.19
 2025 093   164   162   51.8    0.0   0.00   4.59   65.4   27.1    0.0    4.6   6.34   1.89    0.00    0.00   0.00   0.00   0.00   0.00  13.05  24.63
 2025 094   165   163   54.7    0.0   0.00   4.54   69.6   28.5    0.0    4.5   6.34   1.88    0.00    0.00   0.00   0.00   0.00   0.00  14.29  26.08
 2025 095   166   164   57.6    0.0   0.00   4.50   73.9   30.0    0.0    4.5   6.34   1.88    0.00    0.00   0.00   0.00   0.00   0.00  15.55  27.54
 2025 096   167   165   58.0    0.0   0.00   4.50   74.7   30.2    0.0    4.5   6.34   1.89    0.00    0.00   0.00   0.00   0.00   0.00  15.67  27.77
 2025 097   168   166   61.9    0.0   0.00   4.81   79.3   32.2    0.0    4.8   6.34   1.98    0.00    0.00   0.00   0.00   0.00   0.00  16.19  29.74
 2025 098   169   167   61.9    0.0   0.00   4.68   79.3   32.2    0.0    4.7   6.34   1.90    0.00    0.00   0.00   0.00   0.00   0.00  16.03  29.74
 2025 099   170   168   61.9    0.0   0.00   4.56   79.9   32.2    0.0    4.6   6.34   1.89    0.00    0.00   0.00   0.00   0.00   0.00  16.48  29.74
 2025 100   171   169   61.9    0.0   0.00   4.41   80.8   32.2    0.0    4.4   6.34   1.89    0.00    0.00   0.00   0.00   0.00   0.00  17.19  29.74
 2025 101   172   170   62.6    0.0   0.00   4.28   81.9   32.5    0.0    4.3   6.34   1.81    0.00    0.00   0.00   0.00   0.00   0.00  17.41  30.11
 2025 102   173   171   63.1    0.0   0.00   4.09   82.7   32.8    0.0    4.1   6.34   1.69    0.00    0.00   0.00   0.01   0.02   0.02  17.51  30.36
 2025 103   174   172   63.6    0.0   0.00   3.90   83.4   33.0    0.0    3.9   6.34   1.59    0.00    0.00   0.00   0.08   0.15   0.15  17.60  30.62
 2025 104   175   173   65.9    0.0   0.00   3.84   86.9   34.1    0.0    3.9   6.34   1.58    0.00    0.00   0.00   0.14   0.26   0.26  18.65  31.76
 2025 105   176   174   68.1    0.0   0.00   3.58   89.8   35.1    0.2    3.6   0.76   1.57    0.00    0.00   0.00   0.15   0.27   0.27  19.18  32.75
 2025 106   177   175   69.7    0.0   0.00   3.32   91.9   35.8    0.4    3.4   0.70   1.53    0.00    0.00   0.00   0.24   0.42   0.42  19.42  33.47
 2025 107   178   176   74.2    0.0   0.00   3.31   97.5   37.7    1.1    3.4   1.28   1.56    0.00    0.00   0.02   0.35   0.58   0.58  20.29  35.39
 2025 108   179   177   79.1    0.0   0.00   3.41  103.5   39.7    2.0    3.5   1.89   1.62    0.00    0.00   0.01   0.34   0.57   0.57  21.21  37.43
 2025 109   180   178   82.6    0.0   0.00   3.28  107.8   41.1    2.6    3.4   1.81   1.61    0.00    0.00   0.00   0.27   0.46   0.46  21.73  38.88
 2025 110   181   179   86.8    0.0   0.00   3.17  112.7   42.7    3.5    3.3   1.81   1.59    0.00    0.00   0.00   0.31   0.52   0.52  22.32  40.51
 2025 111   182   180   88.8    0.0   0.00   3.04  115.1   43.5    4.0    3.2   1.67   1.56    0.00    0.00   0.02   0.35   0.57   0.57  22.48  41.29
 2025 112   183   181   89.7    0.0   0.00   2.92  116.2   43.8    4.2    3.1   1.52   1.52    0.00    0.00   0.09   0.40   0.63   0.63  22.44  41.65
 2025 113   184   182   90.6    0.0   0.00   2.79  117.3   44.2    4.4    3.0   1.37   1.47    0.00    0.00   0.16   0.44   0.69   0.69  22.39  42.00
 2025 114   185   183   91.4    0.0   0.00   2.73  118.3   44.5    4.7    2.9   1.32   1.45    0.00    0.00   0.25   0.50   0.75   0.75  22.32  42.29
 2025 115   186   184   92.2    0.0   0.00   2.70  119.3   44.8    4.9    2.9   1.31   1.44    0.00    0.00   0.29   0.52   0.77   0.77  22.26  42.59
 2025 116   187   185   92.7    0.0   0.00   2.60  119.9   44.9    5.0    2.8   1.21   1.40    0.00    0.00   0.29   0.53   0.78   0.78  22.13  42.77
 2025 117   188   186   93.2    0.0   0.00   2.50  120.5   45.1    5.2    2.7   1.11   1.36    0.00    0.00   0.35   0.57   0.81   0.81  22.01  42.94
 2025 118   189   187   93.7    0.0   0.00   2.42  121.0   45.3    5.3    2.7   1.03   1.32    0.00    0.00   0.41   0.61   0.85   0.85  21.89  43.10
 2025 119   190   188   94.1    0.0   0.00   2.34  121.6   45.4    5.5    2.6   0.96   1.28    0.00    0.00   0.46   0.64   0.87   0.87  21.77  43.25
 2025 120   191   189   94.6    0.0   0.00   2.27  122.1   45.6    5.6    2.5   0.91   1.25    0.00    0.00   0.50   0.67   0.89   0.89  21.65  43.40
 2025 121   192   190   95.0    0.0   0.00   2.23  122.6   45.7    5.8    2.5   0.87   1.23    0.00    0.00   0.52   0.68   0.90   0.90  21.53  43.54
 2025 122   193   191   95.4    0.0   0.00   2.16  123.2   45.8    5.9    2.4   0.83   1.20    0.00    0.00   0.53   0.69   0.90   0.90  21.43  43.68
 2025 123   194   192   96.0    0.0   0.00   2.14  123.9   46.0    6.2    2.4   0.82   1.19    0.00    0.00   0.56   0.70   0.91   0.91  21.36  43.85
 2025 124   195   193   96.5    0.0   0.00   2.11  124.5   46.1    6.4    2.4   0.81   1.18    0.00    0.00   0.56   0.70   0.91   0.91  21.28  44.00
 2025 125   196   194   97.2    0.0   0.00   2.10  125.4   46.3    6.7    2.4   0.81   1.17    0.00    0.00   0.57   0.71   0.92   0.92  21.26  44.20
 2025 126   197   195   97.9    0.0   0.00   2.06  126.3   46.5    7.0    2.4   0.80   1.15    0.00    0.00   0.56   0.71   0.91   0.91  21.22  44.39
 2025 127   198   196   98.4    0.0   0.00   2.03  127.0   46.7    7.2    2.3   0.78   1.14    0.00    0.00   0.58   0.72   0.92   0.92  21.17  44.54
 2025 128   199   197   98.9    0.0   0.00   2.00  127.6   46.8    7.4    2.3   0.77   1.13    0.00    0.00   0.59   0.73   0.93   0.93  21.09  44.67
 2025 129   200   198   99.3    0.0   0.00   1.96  128.1   46.9    7.6    2.3   0.74   1.10    0.00    0.00   0.60   0.73   0.93   0.93  21.00  44.78
 2025 130   201   199   99.7    0.0   0.00   1.92  128.6   47.0    7.8    2.3   0.71   1.08    0.00    0.00   0.63   0.75   0.94   0.94  20.91  44.87
 2025 131   202   200  100.1    0.0   0.00   1.88  129.1   47.1    8.0    2.2   0.69   1.06    0.00    0.00   0.65   0.76   0.94   0.94  20.81  44.96
 2025 132   203   201  104.6    0.0   0.00   1.93  135.1   48.1   10.5    2.3   0.85   1.11    0.00    0.00   0.66   0.77   0.95   0.95  22.05  46.03
 2025 133   204   202  109.1    0.0   0.00   1.96  141.1   49.0   13.0    2.3   0.99   1.16    0.00    0.00   0.56   0.71   0.91   0.91  23.32  47.03
 2025 134   205   203  113.6    0.0   0.00   1.98  147.1   49.9   15.7    2.3   1.11   1.20    0.00    0.00   0.47   0.65   0.88   0.88  24.60  47.98
 2025 135   206   204  118.0    0.0   0.00   1.99  153.1   50.6   18.8    2.3   1.17   1.24    0.00    0.00   0.39   0.59   0.84   0.84  25.88  48.68
 2025 136   207   205  122.4    0.0   0.00   2.00  159.1   51.0   22.2    2.3   1.24   1.28    0.00    0.00   0.31   0.54   0.79   0.79  27.18  49.21
 2025 137   208   206  126.3    0.0   0.00   1.99  164.4   51.3   25.6    2.3   1.26   1.32    0.00    0.00   0.23   0.48   0.73   0.73  28.33  49.50
 2025 138   209   207  128.3    0.0   0.00   1.94  167.2   51.3   27.5    2.3   1.21   1.32    0.00    0.00   0.17   0.44   0.69   0.69  28.80  49.55
 2025 139   210   208  129.5    0.0   0.00   1.88  168.7   51.3   28.6    2.3   1.12   1.29    0.00    0.00   0.16   0.44   0.69   0.69  28.92  49.55
 2025 140   211   209  129.9    0.0   0.00   1.81  169.4   51.3   29.1    2.3   1.03   1.26    0.00    0.00   0.18   0.45   0.70   0.70  28.80  49.55
 2025 141   212   210  131.7    0.0   0.00   1.79  171.7   51.3   30.8    2.3   1.02   1.26    0.00    0.00   0.22   0.48   0.73   0.73  29.11  49.55
 2025 142   213   211  132.3    0.0   0.00   1.77  172.6   51.3   31.5    2.3   1.00   1.26    0.00    0.00   0.21   0.47   0.72   0.72  29.05  49.55
 2025 143   214   212  132.8    0.0   0.00   1.72  173.2   51.3   32.0    2.3   0.95   1.23    0.00    0.00   0.20   0.47   0.72   0.72  28.90  49.55
 2025 144   215   213  133.1    0.0   0.00   1.67  173.6   51.3   32.2    2.3   0.89   1.21    0.00    0.00   0.23   0.49   0.74   0.74  28.71  49.55
 2025 145   216   214  134.2    0.0   0.00   1.66  175.1   51.3   33.4    2.3   0.89   1.21    0.00    0.00   0.26   0.51   0.76   0.76  28.79  49.55
 2025 146   217   215  134.4    0.0   0.00   1.62  175.3   51.3   33.6    2.3   0.84   1.18    0.00    0.00   0.20   0.46   0.71   0.71  28.56  49.55
 2025 147   218   216  134.6    0.0   0.00   1.58  175.6   51.3   33.8    2.3   0.81   1.16    0.00    0.00   0.23   0.48   0.73   0.73  28.35  49.55
 2025 148   219   217  134.8    0.0   0.00   1.56  175.9   51.3   34.0    2.3   0.79   1.15    0.00    0.00   0.22   0.48   0.73   0.73  28.13  49.55
 2025 149   220   218  135.0    0.0   0.00   1.53  176.2   51.3   34.2    2.3   0.76   1.13    0.00    0.00   0.17   0.45   0.69   0.69  27.92  49.55
 2025 150   221   219  135.2    0.0   0.00   1.49  176.5   51.3   34.4    2.3   0.72   1.10    0.00    0.00   0.12   0.41   0.66   0.66  27.72  49.55
 2025 151   222   220  135.4    0.0   0.00   1.45  176.7   51.3   34.6    2.3   0.69   1.08    0.00    0.00   0.08   0.39   0.63   0.63  27.50  49.55
 2025 152   223   221  135.6    0.0   0.00   1.42  176.8   51.3   34.7    2.3   0.67   1.07    0.00    0.00   0.03   0.35   0.58   0.58  27.28  49.55
 2025 153   224   222  135.8    0.0   0.00   1.40  177.2   51.3   35.0    2.3   0.65   1.06    0.00    0.00   0.00   0.31   0.52   0.52  27.10  49.55
 2025 154   225   223  136.1    0.0   0.00   1.37  177.5   51.3   35.3    2.3   0.63   1.05    0.00    0.00   0.00   0.16   0.30   0.30  26.93  49.55
 2025 155   226   224  136.4    0.0   0.00   1.34  178.0   51.3   35.6    2.3   0.61   1.05    0.00    0.00   0.00   0.02   0.03   0.03  26.79  49.55
 2025 156   227   225  136.7    0.0   0.00   1.31  178.4   51.3   35.9    2.3   0.59   1.04    0.00    0.00   0.00   0.00   0.00   0.00  26.65  49.55
 2025 157   228   226  137.0    0.0   0.00   1.29  178.9   51.3   36.2    2.3   0.58   1.04    0.00    0.00   0.00   0.00   0.00   0.00  26.53  49.55
 2025 158   229   227  137.3    0.0   0.00   1.27  179.3   51.3   36.5    2.3   0.56   1.03    0.00    0.00   0.00   0.00   0.00   0.00  26.41  49.55
 2025 159   230   228  137.7    0.0   0.00   1.24  179.8   51.3   36.8    2.3   0.55   1.03    0.00    0.00   0.00   0.00   0.00   0.00  26.31  49.55
 2025 160   231   229  137.9    0.0   0.00   1.21  180.2   51.3   37.1    2.3   0.52   1.02    0.00    0.00   0.00   0.00   0.00   0.00  26.18  49.55
 2025 161   232   230  138.1    0.0   0.00   1.18  180.5   51.3   37.3    2.3   0.51   1.01    0.00    0.00   0.00   0.00   0.00   0.00  26.02  49.55
 2025 162   233   231  138.2    0.0   0.00   1.16  180.7   51.3   37.4    2.3   0.50   1.00    0.00    0.00   0.00   0.00   0.00   0.00  25.83  49.55
 2025 163   234   232  138.3    0.0   0.00   1.15  180.8   51.3   37.5    2.3   0.49   0.99    0.00    0.00   0.00   0.00   0.00   0.00  25.63  49.55
 2025 164   235   233  138.4   25.6   2.82   1.01  180.8   46.9   37.6    2.1   0.55   0.99    0.00    0.00   0.00   0.00   0.00   0.00  25.46  28.30
 2025 165   236   234  138.5   32.9   2.86   0.95  180.8   41.8   37.6    1.9   0.56   0.99    0.00    0.00   0.00   0.00   0.00   0.00  25.31  26.10
 2025 166   237   235  138.6   39.0   2.65   0.91  181.0   37.6   37.7    1.7   0.58   1.00    0.00    0.00   0.00   0.00   0.00   0.00  25.25  24.24
[...]
 2025 089   160   158   45.4    0.0   0.00   4.73   56.0   24.0    0.0    4.7   6.34   1.91    0.00    0.00   0.00   0.00   0.00   0.00  10.46  21.43
 2025 090   161   159   46.4    0.0   0.00   4.71   57.4   24.4    0.0    4.7   6.34   1.92    0.00    0.00   0.00   0.00   0.00   0.00  10.81  21.91
 2025 091   162   160   47.2    0.0   0.00   4.69   58.7   24.9    0.0    4.7   6.34   1.91    0.00    0.00   0.00   0.00   0.00   0.00  11.13  22.34
 2025 092   163   161   49.1    0.0   0.00   4.64   61.4   25.8    0.0    4.6   6.34   1.90    0.00    0.00   0.00   0.00   0.00   0.00  11.90  23.28
 2025 093   164   162   52.0    0.0   0.00   4.59   65.7   27.2    0.0    4.6   6.34   1.89    0.00    0.00   0.00   0.00   0.00   0.00  13.13  24.73
 2025 094   165   163   54.8    0.0   0.00   4.54   69.9   28.6    0.0    4.5   6.34   1.88    0.00    0.00   0.00   0.00   0.00   0.00  14.37  26.18
 2025 095   166   164   57.7    0.0   0.00   4.50   74.2   30.1    0.0    4.5   6.34   1.88    0.00    0.00   0.00   0.00   0.00   0.00  15.62  27.64
 2025 096   167   165   58.2    0.0   0.00   4.50   74.9   30.3    0.0    4.5   6.34   1.89    0.00    0.00   0.00   0.00   0.00   0.00  15.74  27.86
 2025 097   168   166   63.3    0.0   0.00   4.90   80.9   32.8    0.0    4.9   6.34   2.00    0.00    0.00   0.00   0.00   0.00   0.00  16.47  30.41
 2025 098   169   167   63.3    0.0   0.00   4.77   80.9   32.8    0.0    4.8   6.34   1.92    0.00    0.00   0.00   0.00   0.00   0.00  16.31  30.41
 2025 099   170   168   63.3    0.0   0.00   4.65   81.4   32.8    0.0    4.6   6.34   1.89    0.00    0.00   0.00   0.00   0.00   0.00  16.55  30.41
 2025 100   171   169   63.3    0.0   0.00   4.49   82.2   32.8    0.0    4.5   6.34   1.89    0.00    0.00   0.00   0.00   0.00   0.00  17.26  30.41
 2025 101   172   170   64.0    0.0   0.00   4.36   84.0   33.2    0.0    4.4   6.34   1.88    0.00    0.00   0.00   0.00   0.00   0.00  18.13  30.80
 2025 102   173   171   64.8    0.0   0.00   4.18   85.2   33.5    0.0    4.2   6.34   1.77    0.00    0.00   0.00   0.00   0.00   0.00  18.35  31.19
 2025 103   174   172   65.4    0.0   0.00   3.99   86.2   33.9    0.0    4.0   6.34   1.66    0.00    0.00   0.00   0.04   0.07   0.07  18.52  31.52
 2025 104   175   173   68.0    0.0   0.00   3.93   90.2   35.1    0.0    3.9   6.34   1.65    0.00    0.00   0.00   0.10   0.19   0.19  19.73  32.82
 2025 105   176   174   70.5    0.0   0.00   3.68   93.5   36.3    0.3    3.7   0.99   1.65    0.00    0.00   0.00   0.10   0.19   0.19  20.29  33.96
 2025 106   177   175   72.5    0.0   0.00   3.42   95.9   37.1    0.6    3.5   0.91   1.61    0.00    0.00   0.00   0.19   0.34   0.34  20.55  34.80
 2025 107   178   176   77.4    0.0   0.00   3.42  101.9   39.1    1.4    3.5   1.54   1.64    0.00    0.00   0.00   0.30   0.50   0.50  21.39  36.87
 2025 108   179   177   82.4    0.0   0.00   3.52  107.9   41.2    2.3    3.6   2.18   1.69    0.00    0.00   0.00   0.28   0.49   0.49  22.21  38.92
 2025 109   180   178   87.4    0.0   0.00   3.44  113.9   43.2    3.3    3.5   2.24   1.68    0.00    0.00   0.00   0.21   0.38   0.38  22.92  40.95
 2025 110   181   179   92.5    0.0   0.00   3.35  119.9   45.1    4.5    3.4   2.26   1.67    0.00    0.00   0.00   0.22   0.40   0.40  23.60  42.94
 2025 111   182   180   97.6    0.0   0.00   3.31  125.9   47.0    5.7    3.4   2.35   1.67    0.00    0.00   0.00   0.25   0.44   0.44  24.26  44.89
 2025 112   183   181  100.9    0.0   0.00   3.23  129.8   48.3    6.5    3.3   2.29   1.66    0.00    0.00   0.00   0.25   0.44   0.44  24.60  46.13
 2025 113   184   182  106.0    0.0   0.00   3.17  135.8   50.1    7.9    3.3   2.30   1.64    0.00    0.00   0.00   0.27   0.46   0.46  25.24  48.00
 2025 114   185   183  109.6    0.0   0.00   3.15  140.0   51.4    8.9    3.3   2.33   1.64    0.00    0.00   0.00   0.28   0.49   0.49  25.62  49.28
 2025 115   186   184  112.0    0.0   0.00   3.12  142.9   52.2    9.7    3.2   2.34   1.64    0.00    0.00   0.00   0.28   0.48   0.48  25.81  50.15
 2025 116   187   185  112.5    0.0   0.00   2.96  143.4   52.4    9.8    3.1   2.06   1.58    0.00    0.00   0.00   0.27   0.47   0.47  25.64  50.31
 2025 117   188   186  113.0    0.0   0.00   2.79  144.0   52.5   10.0    3.0   1.79   1.51    0.00    0.00   0.02   0.34   0.57   0.57  25.47  50.47
 2025 118   189   187  113.4    0.0   0.00   2.65  144.6   52.7   10.1    2.8   1.60   1.45    0.00    0.00   0.14   0.43   0.67   0.67  25.30  50.63
 2025 119   190   188  113.9    0.0   0.00   2.53  145.1   52.8   10.3    2.7   1.45   1.40    0.00    0.00   0.23   0.49   0.74   0.74  25.14  50.77
 2025 120   191   189  114.3    0.0   0.00   2.44  145.6   53.0   10.4    2.7   1.34   1.36    0.00    0.00   0.30   0.54   0.79   0.79  24.98  50.91
 2025 121   192   190  114.7    0.0   0.00   2.37  146.1   53.1   10.6    2.6   1.26   1.32    0.00    0.00   0.35   0.57   0.81   0.81  24.82  51.03
 2025 122   193   191  115.1    0.0   0.00   2.29  146.6   53.2   10.8    2.6   1.17   1.28    0.00    0.00   0.37   0.58   0.83   0.83  24.66  51.15
 2025 123   194   192  115.7    0.0   0.00   2.25  147.3   53.4   11.0    2.5   1.14   1.26    0.00    0.00   0.42   0.61   0.85   0.85  24.54  51.30
 2025 124   195   193  116.2    0.0   0.00   2.22  148.0   53.5   11.3    2.5   1.11   1.25    0.00    0.00   0.43   0.62   0.85   0.85  24.44  51.46
 2025 125   196   194  116.9    0.0   0.00   2.19  148.8   53.7   11.6    2.5   1.10   1.23    0.00    0.00   0.45   0.63   0.86   0.86  24.37  51.65
 2025 126   197   195  117.5    0.0   0.00   2.15  149.6   53.9   11.9    2.4   1.06   1.21    0.00    0.00   0.45   0.63   0.86   0.86  24.30  51.82
 2025 127   198   196  118.1    0.0   0.00   2.10  150.4   54.0   12.1    2.4   1.02   1.19    0.00    0.00   0.47   0.65   0.88   0.88  24.21  51.97
 2025 128   199   197  118.6    0.0   0.00   2.07  151.1   54.1   12.4    2.4   1.00   1.17    0.00    0.00   0.49   0.66   0.89   0.89  24.11  52.10
 2025 129   200   198  119.1    0.0   0.00   2.02  151.7   54.2   12.7    2.4   0.96   1.15    0.00    0.00   0.50   0.67   0.89   0.89  24.01  52.22
 2025 130   201   199  119.5    0.0   0.00   1.98  152.2   54.3   12.9    2.3   0.92   1.12    0.00    0.00   0.54   0.69   0.91   0.91  23.89  52.32
 2025 131   202   200  120.0    0.0   0.00   1.94  152.7   54.4   13.1    2.3   0.88   1.10    0.00    0.00   0.56   0.71   0.92   0.92  23.77  52.42
 2025 132   203   201  124.5    0.0   0.00   1.97  158.7   55.4   15.7    2.3   1.00   1.14    0.00    0.00   0.58   0.72   0.92   0.92  24.95  53.42
 2025 133   204   202  129.1    0.0   0.00   1.99  164.7   56.3   18.4    2.3   1.11   1.17    0.00    0.00   0.50   0.67   0.89   0.89  26.16  54.36
 2025 134   205   203  133.6    0.0   0.00   2.00  170.7   57.1   21.2    2.3   1.19   1.20    0.00    0.00   0.43   0.62   0.86   0.86  27.38  55.24
 2025 135   206   204  138.0    0.0   0.00   2.00  176.7   57.7   24.4    2.3   1.24   1.24    0.00    0.00   0.36   0.57   0.82   0.82  28.62  55.90
 2025 136   207   205  142.5    0.0   0.00   2.01  182.7   58.2   27.9    2.3   1.28   1.28    0.00    0.00   0.29   0.52   0.77   0.77  29.88  56.38
 2025 137   208   206  146.0    0.0   0.00   1.99  187.5   58.3   31.0    2.3   1.28   1.30    0.00    0.00   0.21   0.47   0.72   0.72  30.85  56.61
 2025 138   209   207  147.9    0.0   0.00   1.95  190.3   58.3   32.9    2.3   1.23   1.30    0.00    0.00   0.16   0.44   0.69   0.69  31.30  56.64
 2025 139   210   208  149.1    0.0   0.00   1.89  191.8   58.3   34.1    2.3   1.15   1.28    0.00    0.00   0.14   0.43   0.67   0.67  31.40  56.64
 2025 140   211   209  149.5    0.0   0.00   1.83  192.4   58.3   34.5    2.3   1.06   1.25    0.00    0.00   0.15   0.43   0.68   0.68  31.23  56.64
 2025 141   212   210  152.5    0.0   0.00   1.83  196.5   58.3   37.5    2.3   1.09   1.27    0.00    0.00   0.19   0.46   0.71   0.71  31.99  56.64
 2025 142   213   211  153.6    0.0   0.00   1.80  198.0   58.3   38.7    2.3   1.07   1.27    0.00    0.00   0.14   0.42   0.67   0.67  32.05  56.64
 2025 143   214   212  154.3    0.0   0.00   1.76  198.9   58.3   39.3    2.3   1.02   1.25    0.00    0.00   0.12   0.41   0.65   0.65  31.96  56.64
 2025 144   215   213  154.6    0.0   0.00   1.71  199.3   58.3   39.6    2.3   0.96   1.22    0.00    0.00   0.15   0.43   0.68   0.68  31.73  56.64
 2025 145   216   214  159.1    0.0   0.00   1.74  205.3   58.3   44.1    2.3   1.04   1.26    0.00    0.00   0.17   0.45   0.69   0.69  32.90  56.64
 2025 146   217   215  159.9    0.0   0.00   1.69  206.4   58.3   44.9    2.3   0.99   1.24    0.00    0.00   0.02   0.34   0.57   0.57  32.83  56.64
 2025 147   218   216  160.1    0.0   0.00   1.65  206.6   58.3   45.1    2.3   0.95   1.22    0.00    0.00   0.04   0.36   0.59   0.59  32.56  56.64
 2025 148   219   217  160.2    0.0   0.00   1.63  206.8   58.3   45.2    2.3   0.93   1.21    0.00    0.00   0.03   0.35   0.58   0.58  32.28  56.64
 2025 149   220   218  160.4    0.0   0.00   1.60  207.0   58.3   45.4    2.3   0.89   1.19    0.00    0.00   0.00   0.32   0.53   0.53  32.02  56.64
 2025 150   221   219  160.5    0.0   0.00   1.57  207.2   58.3   45.6    2.3   0.86   1.17    0.00    0.00   0.00   0.28   0.48   0.48  31.75  56.64
 2025 151   222   220  160.7    0.0   0.00   1.55  207.3   58.3   45.7    2.3   0.84   1.15    0.00    0.00   0.00   0.22   0.40   0.40  31.47  56.64
 2025 152   223   221  160.8    0.0   0.00   1.53  207.3   58.3   45.8    2.3   0.82   1.15    0.00    0.00   0.00   0.14   0.27   0.27  31.20  56.64
 2025 153   224   222  161.0    0.0   0.00   1.51  207.7   58.3   46.0    2.3   0.80   1.14    0.00    0.00   0.00   0.07   0.13   0.13  30.98  56.64
 2025 154   225   223  161.3    0.0   0.00   1.48  208.0   58.3   46.3    2.3   0.77   1.13    0.00    0.00   0.00   0.00   0.00   0.00  30.78  56.64
 2025 155   226   224  161.6    0.0   0.00   1.45  208.5   58.3   46.6    2.3   0.75   1.13    0.00    0.00   0.00   0.00   0.00   0.00  30.60  56.64
 2025 156   227   225  161.9    0.0   0.00   1.43  208.9   58.3   46.9    2.3   0.73   1.12    0.00    0.00   0.00   0.00   0.00   0.00  30.42  56.64
 2025 157   228   226  162.2    0.0   0.00   1.40  209.3   58.3   47.2    2.3   0.71   1.12    0.00    0.00   0.00   0.00   0.00   0.00  30.27  56.64
 2025 158   229   227  162.5    0.0   0.00   1.38  209.8   58.3   47.5    2.3   0.69   1.11    0.00    0.00   0.00   0.00   0.00   0.00  30.13  56.64
 2025 159   230   228  162.8    0.0   0.00   1.36  210.3   58.3   47.8    2.3   0.67   1.11    0.00    0.00   0.00   0.00   0.00   0.00  30.01  56.64
 2025 160   231   229  163.0    0.0   0.00   1.32  210.7   58.3   48.0    2.3   0.64   1.10    0.00    0.00   0.00   0.00   0.00   0.00  29.86  56.64
 2025 161   232   230  163.2    0.0   0.00   1.30  211.0   58.3   48.2    2.3   0.63   1.09    0.00    0.00   0.00   0.00   0.00   0.00  29.67  56.64
 2025 162   233   231  163.3    0.0   0.00   1.28  211.1   58.3   48.3    2.3   0.62   1.08    0.00    0.00   0.00   0.00   0.00   0.00  29.45  56.64
 2025 163   234   232  163.4    0.0   0.00   1.27  211.2   58.3   48.4    2.3   0.61   1.08    0.00    0.00   0.00   0.00   0.00   0.00  29.25  56.64
 2025 164   235   233  163.4   26.4   2.82   1.14  211.2   54.0   48.5    2.2   0.69   1.08    0.00    0.00   0.00   0.00   0.00   0.00  29.10  34.60
 2025 165   236   234  163.5   33.9   2.86   1.10  211.2   49.0   48.4    2.0   0.70   1.08    0.00    0.00   0.00   0.00   0.00   0.00  28.97  32.16
 2025 166   237   235  163.5   40.1   2.65   1.06  211.3   45.0   48.1    1.8   0.72   1.09    0.00    0.00   0.00   0.00   0.00   0.00  29.00  30.20
 2025 167   238   236  163.5   45.5   2.49   1.03  211.4   41.8   47.6    1.7   0.73   1.10    0.00    0.00   0.00   0.00   0.00   0.00  28.96  28.60
 2025 168   239   237  163.5   50.9   2.43   1.00  211.4   38.7   46.9    1.6   0.74   1.10    0.00    0.00   0.00   0.00   0.00   0.00  28.86  27.01
 2025 169   240   238  163.5   57.3   2.44   0.95  211.4   35.2   45.8    1.4   0.74   1.11    0.00    0.00   0.00   0.00   0.00   0.00  28.77  25.22
 2025 170   241   239  163.5   63.6   2.42   0.91  211.4   31.9   44.5    1.3   0.74   1.11    0.00    0.00   0.00   0.00   0.00   0.00  28.67  23.51
 2025 171   242   240  163.5   69.4   2.38   0.87  211.4   29.1   43.1    1.2   0.74   1.12    0.00    0.00   0.00   0.00   0.00   0.00  28.56  22.01
 2025 172   243   241  163.5   75.9   2.40   0.82  211.4   26.0   41.2    1.0   0.72   1.13    0.00    0.00   0.00   0.00   0.00   0.00  28.46  20.38
 2025 173   244   242  163.5   83.2   2.48   0.76  211.4   22.9   38.8    0.9   0.69   1.13    0.00    0.00   0.00   0.00   0.00   0.00  28.34  18.62
 2025 174   245   243  163.5   86.6   2.52   0.73  211.4   21.5   37.6    0.9   0.67   1.14    0.00    0.00   0.00   0.00   0.00   0.00  28.22  17.82
 2025 175   246   244  163.5   91.0   2.57   0.69  211.4   19.7   36.0    0.8   0.64   1.15    0.00    0.00   0.00   0.00   0.00   0.00  28.10  16.78
 2025 176   247   245  163.5   94.6   2.60   0.65  211.4   18.3   34.6    0.7   0.62   1.15    0.00    0.00   0.00   0.00   0.00   0.00  27.96  15.93
 2025 177   248   246  163.5   97.5   2.63   0.63  211.4   17.2   33.5    0.7   0.60   1.16    0.00    0.00   0.00   0.00   0.00   0.00  27.83  15.25
 2025 178   249   247  163.5  101.3   2.66   0.59  211.5   15.9   31.9    0.6   0.57   1.17    0.00    0.00   0.00   0.00   0.00   0.00  27.78  14.36
 2025 179   250   248  163.5  105.2   2.70   0.55  211.5   14.6   30.3    0.6   0.54   1.17    0.00    0.00   0.00   0.00   0.00   0.00  27.64  13.47
 2025 180   251   249  163.5  108.3   2.72   0.52  211.5   13.6   28.9    0.5   0.51   1.18    0.00    0.00   0.00   0.00   0.00   0.00  27.49  12.74
 2025 181   252   250  163.5  110.9   2.74   0.50  211.5   12.8   27.7    0.5   0.49   1.18    0.00    0.00   0.00   0.00   0.00   0.00  27.34  12.13
 2025 182   253   251  163.5  113.5   2.76   0.47  211.6   12.0   26.4    0.5   0.47   1.19    0.00    0.00   0.00   0.00   0.00   0.00  27.27  11.52
 2025 183   254   252  163.5  115.3   2.78   0.46  211.6   11.6   25.5    0.5   0.45   1.20    0.00    0.00   0.00   0.00   0.00   0.00  27.11  11.12
 2025 184   255   253  163.5  116.7   2.79   0.44  211.6   11.2   24.8    0.5   0.44   1.20    0.00    0.00   0.00   0.00   0.00   0.00  26.95  10.79
 2025 185   256   254  163.5  117.8   2.79   0.43  211.6   10.9   24.3    0.4   0.43   1.21    0.00    0.00   0.00   0.00   0.00   0.00  26.78  10.55
 2025 186   257   255  163.5  118.1   2.80   0.43  211.6   10.8   24.1    0.4   0.43   1.21    0.00    0.00   0.00   0.00   0.00   0.00  26.62  10.47
 2025 187   258   256  163.5  118.1   2.80   0.43  211.6   10.8   24.1    0.4   0.43   1.22    0.00    0.00   0.00   0.00   0.00   0.00  26.45  10.47
 2025 188   259   257  163.5  118.1   2.80   0.43  211.6   10.8   24.1    0.4   0.43   1.22    0.00    0.00   0.00   0.00   0.00   0.00  26.28  10.47
 2025 189   260   258  163.5  118.1   2.80   0.43  211.6   10.8   24.1    0.4   0.43   1.22    0.00    0.00   0.00   0.00   0.00   0.00  26.11  10.47
 2025 190   261   259  163.5  118.1   2.80   0.43  211.6   10.8   24.1    0.4   0.43   1.23    0.00    0.00   0.00   0.00   0.00   0.00  25.94  10.47
 2025 191   262   260  163.5  118.1   2.80   0.43  211.6   10.8   24.1    0.4   0.43   1.23    0.00    0.00   0.00   0.00   0.00   0.00  25.77  10.47
 2025 192   263   261  163.5  118.1   2.80   0.43  211.6   10.8   24.1    0.4   0.43   1.24    0.00    0.00   0.00   0.00   0.00   0.00  25.60  10.47
 2025 193   264   262  163.5  118.1   2.80   0.43  211.6   10.8   24.1    0.4   0.43   1.24    0.00    0.00   0.00   0.00   0.00   0.00  25.42  10.47
 2025 194   265   263  163.5  118.1   2.80   0.43  211.6   10.8   24.1    0.4   0.43   1.25    0.00    0.00   0.00   0.00   0.00   0.00  25.24  10.47
 2025 195   266   264  163.5  118.1   2.80   0.43  212.1   10.8   24.1    0.4   0.43   1.28    0.00    0.00   0.00   0.00   0.00   0.00  25.63  10.47
 2025 196   267   265  163.5  118.1   2.80   0.43  212.1   10.8   24.1    0.4   0.43   1.28    0.00    0.00   0.00   0.00   0.00   0.00  25.37  10.47
 2025 197   268   266  163.5  118.1   2.80   0.43  212.1   10.8   24.1    0.4   0.43   1.28    0.00    0.00   0.00   0.00   0.00   0.00  25.37  10.47
 2025 198   269   267  163.5  118.1   2.80   0.43  212.1   10.8   24.1    0.4   0.43   1.28    0.00    0.00   0.00   0.00   0.00   0.00  25.37  10.47
 2025 199   270   268  163.5  118.1   2.80   0.43  212.1   10.8   24.1    0.4   0.43   1.28    0.00    0.00   0.00   0.00   0.00   0.00  25.37  10.47
 2025 200   271   269  163.5  118.1   2.80   0.43  212.1   10.8   24.1    0.4   0.43   1.28    0.00    0.00   0.00   0.00   0.00   0.00  25.37  10.47
 2025 201   272   270  163.5  118.1   2.80   0.43  212.1   10.8   24.1    0.4   0.43   1.28    0.00    0.00   0.00   0.00   0.00   0.00  25.37  10.47
 2025 202   273   271  163.5  118.1   2.80   0.43  212.1   10.8   24.1    0.4   0.43   1.28    0.00    0.00   0.00   0.00   0.00   0.00  25.37  10.47
 2025 203   274   272  163.5  118.1   2.80   0.43  212.1   10.8   24.1    0.4   0.43   1.28    0.00    0.00   0.00   0.00   0.00   0.00  25.37  10.47
 2025 204   275   273  163.5  118.1   2.80   0.43  212.1   10.8   24.1    0.4   0.43   1.28    0.00    0.00   0.00   0.00   0.00   0.00  25.37  10.47
 2025 205   276   274  163.5  118.1   2.80   0.43  212.1   10.8   24.1    0.4   0.43   1.28    0.00    0.00   0.00   0.00   0.00   0.00  25.37  10.47
 2025 206   277   275  163.5  118.1   2.80   0.43  212.1   10.8   24.1    0.4   0.43   1.28    0.00    0.00   0.00   0.00   0.00   0.00  25.37  10.47
 2025 207   278   276  163.5  118.1   2.80   0.43  212.1   10.8   24.1    0.4   0.43   1.28    0.00    0.00   0.00   0.00   0.00   0.00  25.37  10.47
 2025 208   279   277  163.5  118.1   2.80   0.43  212.1   10.8   24.1    0.4   0.43   1.28    0.00    0.00   0.00   0.00   0.00   0.00  25.37  10.47
 2025 209   280   278  163.5  118.1   2.80   0.43  212.1   10.8   24.1    0.4   0.43   1.28    0.00    0.00   0.00   0.00   0.00   0.00  25.37  10.47
 2025 210   281   279  163.5  118.1   2.80   0.43  212.1   10.8   24.1    0.4   0.43   1.28    0.00    0.00   0.00   0.00   0.00   0.00  25.37  10.47
 2025 211   282   280  163.5  118.1   2.80   0.43  212.1   10.8   24.1    0.4   0.43   1.28    0.00    0.00   0.00   0.00   0.00   0.00  25.37  10.47
 2025 212   283   281  163.5  118.1   2.80   0.43  212.1   10.8   24.1    0.4   0.43   1.28    0.00    0.00   0.00   0.00   0.00   0.00  25.37  10.47
 2025 213   284   282  163.5  118.1   2.80   0.43  212.1   10.8   24.1    0.4   0.43   1.28    0.00    0.00   0.00   0.00   0.00   0.00  25.37  10.47
 2025 214   285   283  163.5  118.1   2.80   0.43  212.1   10.8   24.1    0.4   0.43   1.28    0.00    0.00   0.00   0.00   0.00   0.00  25.37  10.47
 2025 215   286   284  163.5  118.1   2.80   0.43  212.1   10.8   24.1    0.4   0.43   1.28    0.00    0.00   0.00   0.00   0.00   0.00  25.37  10.47
 2025 216   287   285  163.5  118.1   2.80   0.43  212.1   10.8   24.1    0.4   0.43   1.28    0.00    0.00   0.00   0.00   0.00   0.00  25.37  10.47
 2025 217   288   286  163.5  118.1   2.80   0.43  212.1   10.8   24.1    0.4   0.43   1.28    0.00    0.00   0.00   0.00   0.00   0.00  25.37  10.47
 2025 218   289   287  163.5  118.1   2.80   0.43  212.1   10.8   24.1    0.4   0.43   1.28    0.00    0.00   0.00   0.00   0.00   0.00  25.37  10.47
 2025 219   290   288  163.5  118.1   2.80   0.43  212.1   10.8   24.1    0.4   0.43   1.28    0.00    0.00   0.00   0.00   0.00   0.00  25.37  10.47
 2025 220   291   289  163.5  118.1   2.80   0.43  212.1   10.8   24.1    0.4   0.43   1.28    0.00    0.00   0.00   0.00   0.00   0.00  25.37  10.47
 2025 221   292   290  163.5  118.1   2.80   0.43  212.1   10.8   24.1    0.4   0.43   1.28    0.00    0.00   0.00   0.00   0.00   0.00  25.37  10.47
