*SOIL INORGANIC N BALANCE

*DSSAT Cropping System Model Ver. 4.8.2.000 -release  JAN 23, 2026 17:32:35

*RUN   1        : No N                      WHAPS048 HWOC2501    1
 MODEL          : WHAPS048 - Wheat
 EXPERIMENT     : HWOC2501 WH
 DATA PATH      : C:/DSSAT48/Wheat/
 TREATMENT  1   : No N                      WHAPS048
  


!SOIL INORGANIC N BALANCE                         Initial               Final
!                                                Year/Doy            Year/Doy
!                                                2024/296            2025/221
!                                               (kg[N]/ha)          (kg[N]/ha)
! Soil N state variables:
!   Soil NO3                                        49.54               57.54
!   Soil NH4                                         5.43                1.98
!   Soil Urea                                        0.00                0.00
!   Soil N gases                                     0.00                0.11
!   Unreleased fert N                                                    0.00

! N additions:
!   Fertilizer N                                     0.00
!   Mineralized N                                   64.60

! N subtractions:
!   N immobilized                                                        0.00
!   N leached                                                           10.30
!   N loss to tile drainage                                              0.00
!   N Uptake From Soil                                                  49.49
!   NH3 loss                                                             0.00
!   N2O loss                                                             0.04
!   N2 loss                                                              0.05
!   NO loss                                                              0.04

!   Total N balance                                119.56              119.56
!   Balance                                                            -0.000

!===============================================================================

*DSSAT Cropping System Model Ver. 4.8.2.000 -release  JAN 23, 2026 17:32:35

*RUN   2        : 147 kg[N]/ha - broadcast  WHAPS048 HWOC2501    3
 MODEL          : WHAPS048 - Wheat
 EXPERIMENT     : HWOC2501 WH
 DATA PATH      : C:/DSSAT48/Wheat/
 TREATMENT  3   : 147 kg[N]/ha - broadcast  WHAPS048
  


!SOIL INORGANIC N BALANCE                         Initial               Final
!                                                Year/Doy            Year/Doy
!                                                2024/296            2025/221
!                                               (kg[N]/ha)          (kg[N]/ha)
! Soil N state variables:
!   Soil NO3                                        49.54               50.83
!   Soil NH4                                         5.43                2.00
!   Soil Urea                                        0.00                0.00
!   Soil N gases                                     0.00                0.08
!   Unreleased fert N                                                    0.00

! N additions:
!   Fertilizer N                                   147.00
!   Mineralized N                                   49.41

! N subtractions:
!   N immobilized                                                        0.00
!   N leached                                                           10.30
!   N loss to tile drainage                                              0.00
!   N Uptake From Soil                                                 186.49
!   NH3 loss                                                             1.40
!   N2O loss                                                             0.11
!   N2 loss                                                              0.05
!   NO loss                                                              0.12

!   Total N balance                                251.37              251.37
!   Balance                                                            -0.000

!===============================================================================

*DSSAT Cropping System Model Ver. 4.8.2.000 -release  JAN 23, 2026 17:32:35

*RUN   3        : 180 kg[N]/ha - broadcast  WHAPS048 HWOC2501    7
 MODEL          : WHAPS048 - Wheat
 EXPERIMENT     : HWOC2501 WH
 DATA PATH      : C:/DSSAT48/Wheat/
 TREATMENT  7   : 180 kg[N]/ha - broadcast  WHAPS048
  


!SOIL INORGANIC N BALANCE                         Initial               Final
!                                                Year/Doy            Year/Doy
!                                                2024/296            2025/221
!                                               (kg[N]/ha)          (kg[N]/ha)
! Soil N state variables:
!   Soil NO3                                        49.54               51.48
!   Soil NH4                                         5.43                2.04
!   Soil Urea                                        0.00                0.00
!   Soil N gases                                     0.00                0.08
!   Unreleased fert N                                                    0.00

! N additions:
!   Fertilizer N                                   180.00
!   Mineralized N                                   47.63

! N subtractions:
!   N immobilized                                                        0.00
!   N leached                                                           10.30
!   N loss to tile drainage                                              0.00
!   N Uptake From Soil                                                 216.90
!   NH3 loss                                                             1.44
!   N2O loss                                                             0.14
!   N2 loss                                                              0.05
!   NO loss                                                              0.16

!   Total N balance                                282.60              282.60
!   Balance                                                            -0.000
