*Soil Inorganic Nitrogen daily output file

*DSSAT Cropping System Model Ver. 4.8.2.000 -release  JAN 23, 2026 17:32:35

*RUN   1        : No N                      WHAPS048 HWOC2501    1
 MODEL          : WHAPS048 - Wheat
 EXPERIMENT     : HWOC2501 WH
 DATA PATH      : C:/DSSAT48/Wheat/
 TREATMENT  1   : No N                      WHAPS048
  
!                                                                                                                                      NO3 (ppm) at soil dep. (cm):                                                    NH4 (ppm) at soil dep. (cm):                                                    Total Inorganic N @dep(ppm):
!                                                                                                                                       0-5    5-10   10-20   20-30   30-40   40-50   50-60   60-70   70-90  90-210     0-5    5-10   10-20   20-30   30-40   40-50   50-60   60-70   70-90  90-210     0-5    5-10   10-20   20-30   30-40   40-50   50-60   60-70   70-90  90-210
@YEAR DOY   DAS  NAPC  NI#M    NIAD    NITD    NHTD   NURTD    NMNC    NITC    NDNC    NIMC    AMLC   NNMNC    NUCM    NLCC    TDNC    NI1D    NI2D    NI3D    NI4D    NI5D    NI6D    NI7D    NI8D    NI9D    NI10    NH1D    NH2D    NH3D    NH4D    NH5D    NH6D    NH7D    NH8D    NH9D    NH10    NT1D    NT2D    NT3D    NT4D    NT5D    NT6D    NT7D    NT8D    NT9D    NT10    
 2024 295     0     0     0    55.0    49.5     5.4     0.0    0.00    0.00    0.00    0.00    0.00    0.00    0.00    0.00    0.00    1.46     1.5     1.5    1.46    1.46    1.46    1.46    1.46    1.46    1.46    0.16    0.16    0.16    0.16    0.16    0.16    0.16    0.16    0.16    0.16    1.62    1.62    1.62    1.62    1.62    1.62    1.62    1.62    1.62    1.62
 2024 296     1     0     0    55.7    50.4     5.3     0.0    0.74    0.89    0.00    0.00    0.00    0.74    0.00    0.00    0.00    1.39     1.5     1.4    1.44    1.48    1.49    1.48    1.52    1.54    1.49    0.45    0.44    0.20    0.14    0.14    0.14    0.14    0.14    0.14    0.14    1.84    1.93    1.64    1.58    1.63    1.63    1.62    1.66    1.68    1.63
 2024 297     2     0     0    56.4    51.3     5.1     0.0    1.47    1.75    0.00    0.00    0.00    1.47    0.00    0.00    0.00    1.48     1.5     1.4    1.42    1.48    1.50    1.49    1.56    1.63    1.51    0.68    0.68    0.24    0.13    0.13    0.13    0.13    0.13    0.12    0.12    2.16    2.20    1.68    1.55    1.61    1.63    1.62    1.69    1.75    1.63
 2024 298     3     0     0    57.1    52.1     5.0     0.0    2.14    2.56    0.00    0.00    0.00    2.13    0.00    0.00    0.00    1.66     1.6     1.4    1.41    1.48    1.50    1.50    1.58    1.68    1.55    0.85    0.84    0.26    0.12    0.12    0.12    0.12    0.12    0.11    0.11    2.51    2.44    1.71    1.53    1.59    1.62    1.62    1.69    1.79    1.66
 2024 299     4     0     0    57.7    52.8     4.9     0.0    2.75    3.31    0.00    0.00    0.00    2.75    0.00    0.00    0.00    1.85     1.7     1.5    1.40    1.47    1.50    1.50    1.59    1.71    1.61    0.97    0.97    0.28    0.11    0.11    0.11    0.11    0.11    0.10    0.10    2.82    2.65    1.75    1.51    1.58    1.61    1.61    1.69    1.81    1.71
 2024 300     5     0     0    58.3    53.5     4.7     0.0    3.33    4.01    0.00    0.00    0.00    3.33    0.00    0.00    0.00    2.10     1.8     1.5    1.39    1.46    1.49    1.49    1.58    1.72    1.67    1.06    1.06    0.30    0.10    0.10    0.10    0.10    0.10    0.09    0.09    3.17    2.86    1.79    1.50    1.56    1.59    1.59    1.68    1.82    1.75
 2024 301     6     0     0    58.8    54.2     4.6     0.0    3.87    4.68    0.01    0.00    0.00    3.87    0.00    0.00    0.00    2.40     1.9     1.5    1.39    1.45    1.48    1.48    1.58    1.73    1.72    1.13    1.13    0.31    0.10    0.10    0.10    0.10    0.09    0.09    0.08    3.52    3.03    1.83    1.49    1.55    1.58    1.58    1.67    1.82    1.80
 2024 302     7     0     0    59.3    54.8     4.5     0.0    4.38    5.32    0.01    0.00    0.00    4.38    0.00    0.00    0.00    2.65     2.0     1.6    1.40    1.45    1.48    1.48    1.57    1.74    1.76    1.17    1.17    0.31    0.09    0.09    0.09    0.09    0.09    0.08    0.07    3.81    3.20    1.87    1.49    1.54    1.57    1.57    1.66    1.82    1.84
 2024 303     8     0     0    59.7    55.3     4.3     0.0    4.92    5.95    0.01    0.00    0.00    4.92    0.17    0.00    0.00    2.86     2.1     1.6    1.41    1.46    1.47    1.47    1.57    1.74    1.79    1.16    1.21    0.32    0.09    0.09    0.09    0.09    0.08    0.08    0.07    4.03    3.33    1.90    1.50    1.54    1.56    1.56    1.65    1.82    1.86
 2024 304     9     0     0    59.9    55.7     4.2     0.0    5.50    6.57    0.01    0.00    0.00    5.50    0.50    0.00    0.00    2.99     2.2     1.6    1.41    1.46    1.48    1.47    1.56    1.74    1.80    1.12    1.23    0.33    0.09    0.08    0.08    0.09    0.08    0.08    0.06    4.11    3.42    1.94    1.50    1.55    1.57    1.55    1.64    1.82    1.86
 2024 305    10     0     0    60.0    56.0     4.0     0.0    6.06    7.16    0.01    0.00    0.00    6.06    1.03    0.00    0.00    2.86     2.3     1.6    1.42    1.47    1.49    1.48    1.56    1.74    1.81    1.03    1.23    0.33    0.09    0.08    0.08    0.08    0.08    0.07    0.06    3.89    3.49    1.98    1.51    1.55    1.57    1.56    1.64    1.82    1.87
 2024 306    11     0     0    59.9    56.1     3.8     0.0    6.61    7.72    0.01    0.00    0.00    6.61    1.61    0.00    0.00    2.64     2.3     1.7    1.43    1.48    1.50    1.49    1.57    1.75    1.81    0.94    1.22    0.33    0.09    0.08    0.08    0.08    0.07    0.07    0.06    3.58    3.54    2.02    1.51    1.56    1.58    1.57    1.64    1.82    1.87
 2024 307    12     0     0    59.8    56.2     3.7     0.0    7.09    8.23    0.01    0.00    0.00    7.09    2.19    0.00    0.00    2.41     2.4     1.7    1.44    1.49    1.51    1.50    1.58    1.76    1.82    0.85    1.19    0.33    0.08    0.08    0.08    0.08    0.07    0.07    0.06    3.25    3.55    2.05    1.52    1.57    1.59    1.58    1.65    1.83    1.88
 2024 308    13     0     0    59.9    56.4     3.5     0.0    7.49    8.68    0.01    0.00    0.00    7.49    2.56    0.00    0.00    2.35     2.4     1.7    1.44    1.50    1.52    1.51    1.58    1.77    1.83    0.79    1.15    0.33    0.08    0.08    0.08    0.08    0.07    0.06    0.05    3.14    3.57    2.07    1.52    1.57    1.59    1.58    1.65    1.83    1.88
 2024 309    14     0     0    59.7    56.4     3.3     0.0    7.79    9.07    0.01    0.00    0.00    7.79    2.98    0.00    0.00    2.35     2.4     1.8    1.44    1.50    1.52    1.51    1.59    1.77    1.83    0.71    1.10    0.32    0.08    0.07    0.07    0.08    0.07    0.06    0.05    3.05    3.50    2.08    1.52    1.57    1.60    1.59    1.66    1.83    1.88
 2024 310    15     0     0    59.6    56.5     3.1     0.0    8.01    9.41    0.01    0.00    0.00    8.01    3.30    0.00    0.00    2.38     2.4     1.8    1.45    1.50    1.53    1.52    1.59    1.77    1.83    0.63    1.03    0.30    0.08    0.07    0.07    0.07    0.06    0.06    0.05    3.01    3.42    2.07    1.52    1.57    1.60    1.59    1.66    1.83    1.88
 2024 311    16     0     0    59.7    56.8     2.9     0.0    8.13    9.71    0.01    0.00    0.00    8.13    3.35    0.00    0.00    2.42     2.5     1.8    1.45    1.51    1.53    1.52    1.60    1.78    1.84    0.59    0.96    0.28    0.07    0.07    0.07    0.07    0.06    0.06    0.05    3.01    3.42    2.08    1.52    1.58    1.60    1.59    1.66    1.84    1.88
 2024 312    17     0     0    59.8    57.1     2.7     0.0    8.25    9.99    0.01    0.00    0.00    8.25    3.37    0.00    0.00    2.47     2.5     1.8    1.46    1.52    1.54    1.53    1.61    1.79    1.84    0.56    0.90    0.27    0.07    0.06    0.06    0.07    0.06    0.05    0.05    3.04    3.44    2.09    1.53    1.58    1.60    1.60    1.67    1.84    1.89
 2024 313    18     0     0    59.9    57.3     2.6     0.0    8.34   10.25    0.01    0.00    0.00    8.34    3.39    0.00    0.00    2.53     2.6     1.8    1.46    1.52    1.54    1.54    1.61    1.79    1.84    0.53    0.84    0.25    0.06    0.06    0.06    0.06    0.06    0.05    0.04    3.06    3.44    2.09    1.53    1.58    1.61    1.60    1.67    1.84    1.89
 2024 314    19     0     0    59.9    57.5     2.4     0.0    8.41   10.49    0.01    0.00    0.00    8.40    3.42    0.00    0.00    2.58     2.6     1.9    1.47    1.53    1.55    1.54    1.62    1.80    1.85    0.49    0.78    0.23    0.06    0.06    0.06    0.06    0.05    0.05    0.04    3.07    3.43    2.09    1.53    1.58    1.61    1.60    1.67    1.85    1.89
 2024 315    20     0     0    59.9    57.7     2.2     0.0    8.44   10.70    0.01    0.00    0.00    8.44    3.44    0.00    0.00    2.64     2.7     1.9    1.47    1.53    1.56    1.55    1.62    1.80    1.85    0.44    0.71    0.21    0.06    0.05    0.05    0.06    0.05    0.05    0.04    3.08    3.40    2.09    1.53    1.58    1.61    1.60    1.67    1.85    1.89
 2024 316    21     0     0    59.9    57.9     2.1     0.0    8.49   10.90    0.01    0.00    0.00    8.49    3.48    0.00    0.00    2.35     3.0     1.9    1.48    1.54    1.56    1.55    1.63    1.81    1.86    0.40    0.65    0.20    0.05    0.05    0.05    0.05    0.05    0.04    0.04    2.75    3.64    2.11    1.53    1.58    1.61    1.60    1.67    1.85    1.89
 2024 317    22     0     0    59.9    58.0     1.9     0.0    8.51   11.07    0.01    0.00    0.00    8.51    3.53    0.00    0.00    2.14     3.0     2.0    1.48    1.54    1.56    1.56    1.63    1.81    1.86    0.36    0.60    0.18    0.05    0.05    0.05    0.05    0.04    0.04    0.04    2.50    3.63    2.22    1.53    1.58    1.61    1.61    1.68    1.85    1.90
 2024 318    23     0     0    59.9    58.1     1.8     0.0    8.52   11.22    0.01    0.00    0.00    8.52    3.55    0.00    0.00    2.06     3.0     2.1    1.53    1.54    1.57    1.56    1.63    1.81    1.86    0.33    0.55    0.17    0.04    0.04    0.04    0.04    0.04    0.04    0.03    2.39    3.52    2.29    1.57    1.58    1.61    1.60    1.67    1.85    1.89
 2024 319    24     0     0    59.9    58.2     1.6     0.0    8.53   11.35    0.01    0.00    0.00    8.53    3.60    0.00    0.00    1.92     2.9     2.2    1.58    1.57    1.57    1.56    1.64    1.81    1.86    0.31    0.51    0.16    0.04    0.04    0.04    0.04    0.04    0.03    0.03    2.23    3.39    2.34    1.62    1.60    1.61    1.60    1.67    1.85    1.89
 2024 320    25     0     0    59.8    58.3     1.5     0.0    8.53   11.47    0.01    0.00    0.00    8.53    3.62    0.00    0.00    1.89     2.8     2.2    1.62    1.59    1.59    1.56    1.64    1.82    1.87    0.28    0.48    0.14    0.04    0.04    0.04    0.04    0.03    0.03    0.03    2.17    3.26    2.35    1.66    1.63    1.62    1.60    1.67    1.85    1.89
 2024 321    26     0     0    59.8    58.4     1.4     0.0    8.54   11.58    0.01    0.00    0.00    8.54    3.66    0.00    0.00    1.91     2.7     2.2    1.64    1.61    1.60    1.58    1.64    1.82    1.87    0.26    0.44    0.13    0.03    0.03    0.03    0.04    0.03    0.03    0.03    2.17    3.15    2.34    1.68    1.64    1.64    1.61    1.67    1.85    1.89
 2024 322    27     0     0    59.8    58.5     1.3     0.0    8.54   11.69    0.01    0.00    0.00    8.54    3.71    0.00    0.00    1.87     2.7     2.2    1.66    1.62    1.61    1.59    1.65    1.82    1.87    0.24    0.41    0.13    0.03    0.03    0.03    0.03    0.03    0.03    0.02    2.11    3.07    2.35    1.69    1.65    1.65    1.62    1.68    1.85    1.89
 2024 323    28     0     0    59.7    58.5     1.2     0.0    8.55   11.78    0.01    0.00    0.00    8.55    3.79    0.00    0.00    1.40     2.5     2.3    1.75    1.65    1.63    1.60    1.66    1.83    1.87    0.21    0.38    0.12    0.03    0.03    0.03    0.03    0.03    0.02    0.02    1.61    2.93    2.46    1.78    1.68    1.66    1.63    1.69    1.85    1.89
 2024 324    29     0     0    59.7    58.6     1.1     0.0    8.56   11.87    0.01    0.00    0.00    8.56    3.82    0.00    0.00    0.97     2.1     2.4    1.92    1.74    1.68    1.63    1.68    1.84    1.87    0.20    0.35    0.11    0.03    0.03    0.03    0.03    0.02    0.02    0.02    1.17    2.49    2.51    1.95    1.76    1.70    1.66    1.71    1.86    1.89
 2024 325    30     0     0    59.7    58.6     1.0     0.0    8.58   11.95    0.01    0.00    0.00    8.58    3.85    0.00    0.00    0.78     1.8     2.3    2.04    1.84    1.74    1.67    1.71    1.85    1.89    0.19    0.33    0.10    0.03    0.02    0.02    0.03    0.02    0.02    0.02    0.97    2.13    2.39    2.06    1.87    1.77    1.70    1.74    1.87    1.91
 2024 326    31     0     0    59.6    58.6     1.0     0.0    8.59   12.02    0.01    0.00    0.00    8.59    3.91    0.00    0.00    0.68     1.5     2.1    2.07    1.92    1.81    1.72    1.75    1.87    1.90    0.17    0.31    0.09    0.02    0.02    0.02    0.02    0.02    0.02    0.02    0.85    1.84    2.22    2.09    1.95    1.83    1.74    1.77    1.89    1.92
 2024 327    32     0     0    59.6    58.7     0.9     0.0    8.60   12.09    0.01    0.00    0.00    8.60    3.96    0.00    0.00    0.58     1.3     2.0    2.05    1.97    1.86    1.77    1.79    1.89    1.91    0.15    0.29    0.09    0.02    0.02    0.02    0.02    0.02    0.02    0.02    0.73    1.62    2.07    2.07    1.99    1.88    1.79    1.81    1.91    1.93
 2024 328    33     0     0    59.6    58.7     0.8     0.0    8.60   12.16    0.01    0.00    0.00    8.60    3.96    0.00    0.00    0.55     1.2     1.9    2.00    1.98    1.89    1.80    1.83    1.90    1.93    0.14    0.27    0.08    0.02    0.02    0.02    0.02    0.02    0.02    0.02    0.69    1.49    1.94    2.02    2.00    1.91    1.82    1.85    1.92    1.95
 2024 329    34     0     0    59.6    58.8     0.8     0.0    8.61   12.22    0.01    0.00    0.00    8.61    3.96    0.00    0.00    0.56     1.1     1.7    1.86    1.87    1.81    1.73    1.77    1.88    1.91    0.13    0.25    0.07    0.02    0.02    0.02    0.02    0.02    0.02    0.02    0.69    1.37    1.78    1.88    1.89    1.83    1.75    1.79    1.90    1.93
 2024 330    35     0     0    59.5    58.8     0.7     0.0    8.61   12.27    0.01    0.00    0.00    8.61    4.00    0.00    0.00    0.56     1.1     1.7    1.82    1.86    1.81    1.74    1.78    1.89    1.92    0.12    0.24    0.07    0.02    0.02    0.02    0.02    0.02    0.02    0.02    0.68    1.33    1.73    1.84    1.88    1.83    1.76    1.80    1.90    1.93
 2024 331    36     0     0    59.4    58.8     0.7     0.0    8.61   12.32    0.01    0.00    0.00    8.61    4.09    0.00    0.00    0.47     1.1     1.6    1.81    1.86    1.81    1.74    1.79    1.89    1.92    0.10    0.21    0.06    0.02    0.02    0.02    0.02    0.01    0.01    0.01    0.57    1.27    1.70    1.83    1.87    1.83    1.76    1.81    1.91    1.94
 2024 332    37     0     0    59.3    58.7     0.6     0.0    8.62   12.37    0.01    0.00    0.00    8.62    4.22    0.00    0.00    0.40     1.0     1.6    1.80    1.86    1.81    1.74    1.80    1.90    1.93    0.08    0.19    0.06    0.02    0.01    0.01    0.01    0.01    0.01    0.01    0.48    1.15    1.65    1.81    1.87    1.83    1.76    1.81    1.91    1.94
 2024 333    38     0     0    59.3    58.7     0.6     0.0    8.66   12.42    0.01    0.00    0.00    8.66    4.30    0.00    0.00    0.33     0.9     1.5    1.79    1.87    1.82    1.75    1.80    1.90    1.93    0.06    0.17    0.06    0.01    0.01    0.01    0.02    0.01    0.01    0.01    0.39    1.05    1.61    1.81    1.88    1.83    1.76    1.82    1.92    1.94
 2024 334    39     0     0    59.3    58.7     0.6     0.0    8.75   12.47    0.01    0.00    0.00    8.75    4.42    0.00    0.00    0.27     0.8     1.5    1.78    1.88    1.83    1.76    1.81    1.91    1.93    0.06    0.16    0.06    0.02    0.02    0.02    0.02    0.02    0.02    0.02    0.33    0.94    1.54    1.79    1.89    1.85    1.77    1.82    1.92    1.95
 2024 335    40     0     0    59.2    58.6     0.6     0.0    8.78   12.52    0.02    0.00    0.00    8.78    4.51    0.00    0.00    0.23     0.7     1.4    1.67    1.81    1.79    1.72    1.77    1.89    1.92    0.05    0.14    0.05    0.01    0.01    0.02    0.02    0.02    0.02    0.02    0.28    0.83    1.41    1.68    1.82    1.80    1.74    1.79    1.91    1.93
 2024 336    41     0     0    59.2    58.6     0.5     0.0    8.80   12.57    0.02    0.00    0.00    8.80    4.57    0.00    0.00    0.23     0.7     1.3    1.65    1.80    1.79    1.72    1.78    1.89    1.92    0.04    0.13    0.05    0.01    0.01    0.01    0.02    0.02    0.02    0.02    0.27    0.81    1.39    1.67    1.82    1.80    1.74    1.79    1.91    1.93
 2024 337    42     0     0    59.1    58.6     0.5     0.0    8.80   12.61    0.02    0.00    0.00    8.80    4.65    0.00    0.00    0.16     0.6     1.3    1.65    1.81    1.80    1.73    1.78    1.90    1.92    0.03    0.12    0.05    0.01    0.01    0.01    0.01    0.01    0.01    0.01    0.19    0.73    1.36    1.66    1.82    1.81    1.74    1.79    1.91    1.94
 2024 338    43     0     0    59.1    58.6     0.5     0.0    8.80   12.64    0.02    0.00    0.00    8.80    4.65    0.00    0.00    0.15     0.6     1.3    1.65    1.83    1.81    1.74    1.79    1.90    1.92    0.03    0.11    0.04    0.01    0.01    0.01    0.01    0.01    0.01    0.01    0.18    0.67    1.31    1.66    1.84    1.83    1.75    1.80    1.91    1.94
 2024 339    44     0     0    59.0    58.6     0.4     0.0    8.80   12.67    0.02    0.00    0.00    8.80    4.69    0.00    0.00    0.13     0.5     1.2    1.63    1.84    1.83    1.76    1.80    1.91    1.93    0.02    0.10    0.04    0.01    0.01    0.01    0.01    0.01    0.01    0.01    0.16    0.61    1.25    1.64    1.85    1.84    1.77    1.81    1.92    1.94
 2024 340    45     0     0    59.0    58.6     0.4     0.0    8.81   12.69    0.02    0.00    0.00    8.80    4.74    0.00    0.00    0.11     0.5     1.1    1.59    1.84    1.85    1.77    1.81    1.91    1.93    0.02    0.09    0.04    0.01    0.01    0.01    0.01    0.01    0.01    0.01    0.13    0.55    1.18    1.60    1.85    1.86    1.78    1.82    1.92    1.94
 2024 341    46     0     0    59.0    58.6     0.4     0.0    8.81   12.72    0.02    0.00    0.00    8.80    4.77    0.00    0.00    0.08     0.4     1.1    1.57    1.84    1.87    1.79    1.83    1.92    1.93    0.02    0.08    0.03    0.01    0.01    0.01    0.01    0.01    0.01    0.01    0.10    0.47    1.11    1.58    1.85    1.88    1.80    1.84    1.93    1.95
 2024 342    47     0     0    59.0    58.6     0.3     0.0    8.81   12.74    0.02    0.00    0.00    8.81    4.77    0.00    0.00    0.07     0.3     1.0    1.53    1.85    1.89    1.82    1.85    1.93    1.94    0.02    0.08    0.03    0.01    0.01    0.01    0.01    0.01    0.01    0.01    0.09    0.41    1.02    1.54    1.85    1.90    1.83    1.86    1.94    1.95
 2024 343    48     0     0    58.9    58.6     0.3     0.0    8.81   12.77    0.02    0.00    0.00    8.81    4.80    0.00    0.00    0.06     0.3     0.9    1.46    1.83    1.91    1.84    1.87    1.94    1.95    0.01    0.07    0.03    0.01    0.01    0.01    0.01    0.01    0.01    0.01    0.07    0.35    0.93    1.47    1.84    1.92    1.85    1.88    1.95    1.96
 2024 344    49     0     0    58.9    58.6     0.3     0.0    8.81   12.79    0.02    0.00    0.00    8.81    4.83    0.00    0.00    0.05     0.3     0.8    1.39    1.80    1.92    1.87    1.90    1.95    1.96    0.01    0.06    0.03    0.01    0.01    0.01    0.01    0.01    0.01    0.01    0.06    0.32    0.86    1.40    1.81    1.93    1.88    1.91    1.96    1.97
 2024 345    50     0     0    58.9    58.6     0.3     0.0    8.82   12.81    0.02    0.00    0.00    8.81    4.89    0.00    0.00    0.03     0.2     0.8    1.32    1.76    1.91    1.88    1.92    1.97    1.97    0.01    0.06    0.03    0.01    0.01    0.01    0.01    0.01    0.01    0.01    0.04    0.27    0.80    1.33    1.76    1.92    1.89    1.93    1.97    1.98
 2024 346    51     0     0    58.8    58.6     0.2     0.0    8.82   12.83    0.02    0.00    0.00    8.82    4.91    0.00    0.00    0.03     0.2     0.7    1.26    1.71    1.89    1.88    1.94    1.98    1.98    0.01    0.05    0.02    0.01    0.01    0.01    0.01    0.01    0.01    0.01    0.03    0.25    0.75    1.26    1.71    1.90    1.89    1.94    1.98    1.98
 2024 347    52     0     0    58.8    58.6     0.2     0.0    8.82   12.84    0.02    0.00    0.00    8.82    4.92    0.00    0.00    0.03     0.2     0.7    1.17    1.59    1.78    1.80    1.87    1.95    1.95    0.00    0.05    0.02    0.01    0.01    0.01    0.01    0.01    0.01    0.01    0.03    0.24    0.71    1.17    1.60    1.79    1.80    1.87    1.96    1.96
 2024 348    53     0     0    58.4    58.2     0.2     0.0    8.82   12.86    0.02    0.00    0.00    8.82    4.92    0.43    0.00    0.03     0.2     0.7    1.12    1.53    1.73    1.75    1.83    1.94    1.94    0.00    0.04    0.02    0.01    0.01    0.01    0.01    0.01    0.01    0.01    0.03    0.23    0.68    1.13    1.54    1.73    1.76    1.84    1.94    1.95
 2024 349    54     0     0    58.4    58.2     0.2     0.0    8.82   12.87    0.02    0.00    0.00    8.82    4.92    0.43    0.00    0.03     0.2     0.7    1.11    1.52    1.72    1.75    1.83    1.94    1.94    0.00    0.04    0.02    0.01    0.01    0.01    0.01    0.01    0.01    0.01    0.03    0.23    0.68    1.12    1.53    1.72    1.75    1.84    1.95    1.95
 2024 350    55     0     0    58.4    58.2     0.2     0.0    8.82   12.88    0.02    0.00    0.00    8.82    4.92    0.43    0.00    0.03     0.2     0.7    1.11    1.51    1.71    1.74    1.83    1.94    1.94    0.00    0.04    0.02    0.01    0.01    0.01    0.01    0.01    0.01    0.01    0.03    0.23    0.67    1.11    1.52    1.72    1.75    1.83    1.95    1.95
 2024 351    56     0     0    58.4    58.2     0.2     0.0    8.82   12.89    0.02    0.00    0.00    8.82    4.92    0.46    0.00    0.03     0.2     0.6    1.10    1.51    1.71    1.74    1.83    1.94    1.94    0.00    0.04    0.02    0.00    0.00    0.01    0.01    0.01    0.01    0.01    0.04    0.23    0.67    1.10    1.51    1.71    1.74    1.83    1.95    1.95
 2024 352    57     0     0    58.3    58.1     0.2     0.0    8.82   12.91    0.02    0.00    0.00    8.82    4.93    0.51    0.00    0.03     0.2     0.6    1.09    1.50    1.70    1.74    1.82    1.94    1.94    0.00    0.03    0.02    0.00    0.00    0.00    0.00    0.00    0.01    0.01    0.04    0.23    0.66    1.10    1.50    1.70    1.74    1.83    1.95    1.95
 2024 353    58     0     0    58.1    58.0     0.2     0.0    8.82   12.92    0.02    0.00    0.00    8.82    4.98    0.62    0.00    0.02     0.2     0.6    1.08    1.48    1.68    1.72    1.81    1.94    1.94    0.00    0.03    0.02    0.00    0.00    0.00    0.00    0.00    0.00    0.00    0.03    0.21    0.65    1.09    1.49    1.69    1.72    1.81    1.95    1.95
 2024 354    59     0     0    58.1    57.9     0.1     0.0    8.83   12.93    0.02    0.00    0.00    8.83    5.03    0.66    0.00    0.02     0.2     0.6    1.08    1.48    1.69    1.72    1.81    1.94    1.94    0.00    0.02    0.01    0.00    0.00    0.00    0.00    0.00    0.00    0.00    0.02    0.19    0.64    1.08    1.49    1.69    1.72    1.81    1.94    1.95
 2024 355    60     0     0    58.0    57.9     0.1     0.0    8.84   12.94    0.02    0.00    0.00    8.84    5.07    0.66    0.00    0.01     0.2     0.6    1.07    1.48    1.69    1.72    1.81    1.94    1.94    0.00    0.02    0.01    0.00    0.00    0.00    0.00    0.00    0.00    0.01    0.02    0.17    0.62    1.07    1.49    1.70    1.73    1.81    1.95    1.95
 2024 356    61     0     0    58.0    57.8     0.1     0.0    8.85   12.95    0.02    0.00    0.00    8.85    5.10    0.70    0.00    0.01     0.1     0.6    1.05    1.48    1.70    1.73    1.82    1.94    1.94    0.00    0.02    0.01    0.00    0.00    0.00    0.00    0.00    0.01    0.01    0.01    0.15    0.59    1.05    1.49    1.70    1.74    1.82    1.95    1.95
 2024 357    62     0     0    57.9    57.8     0.1     0.0    8.86   12.96    0.02    0.00    0.00    8.86    5.13    0.74    0.00    0.01     0.1     0.5    1.03    1.48    1.71    1.75    1.83    1.94    1.94    0.00    0.02    0.01    0.00    0.00    0.00    0.00    0.00    0.00    0.01    0.01    0.12    0.55    1.03    1.48    1.71    1.75    1.83    1.95    1.95
 2024 358    63     0     0    57.8    57.7     0.1     0.0    8.86   12.97    0.03    0.00    0.00    8.86    5.16    0.77    0.00    0.01     0.1     0.5    0.99    1.47    1.72    1.76    1.84    1.95    1.95    0.00    0.01    0.01    0.00    0.00    0.00    0.00    0.00    0.00    0.01    0.01    0.10    0.51    0.99    1.47    1.72    1.77    1.85    1.95    1.95
 2024 359    64     0     0    57.8    57.7     0.1     0.0    8.87   12.98    0.03    0.00    0.00    8.86    5.18    0.81    0.00    0.01     0.1     0.5    0.94    1.44    1.72    1.78    1.86    1.96    1.95    0.00    0.01    0.01    0.00    0.00    0.00    0.00    0.00    0.00    0.01    0.01    0.09    0.47    0.95    1.44    1.73    1.79    1.87    1.96    1.96
 2024 360    65     0     0    57.0    56.8     0.1     0.0    8.87   12.99    0.03    0.00    0.00    8.87    5.21    1.61    0.00    0.00     0.1     0.4    0.84    1.31    1.61    1.71    1.83    1.95    1.96    0.00    0.01    0.01    0.00    0.00    0.00    0.00    0.00    0.00    0.00    0.00    0.08    0.41    0.84    1.31    1.62    1.71    1.83    1.96    1.96
 2024 361    66     0     0    56.6    56.5     0.1     0.0    8.87   13.00    0.03    0.00    0.00    8.87    5.23    1.98    0.00    0.00     0.1     0.4    0.79    1.25    1.56    1.67    1.80    1.96    1.96    0.00    0.01    0.01    0.00    0.00    0.00    0.00    0.00    0.00    0.00    0.00    0.08    0.39    0.79    1.25    1.56    1.68    1.81    1.96    1.96
 2024 362    67     0     0    56.4    56.3     0.1     0.0    8.87   13.00    0.03    0.00    0.00    8.87    5.26    2.12    0.00    0.00     0.1     0.4    0.77    1.22    1.53    1.67    1.80    1.96    1.96    0.00    0.01    0.01    0.00    0.00    0.00    0.00    0.00    0.00    0.00    0.00    0.07    0.38    0.77    1.22    1.54    1.67    1.81    1.96    1.96
 2024 363    68     0     0    56.4    56.3     0.1     0.0    8.87   13.01    0.03    0.00    0.00    8.87    5.28    2.14    0.00    0.00     0.1     0.4    0.76    1.22    1.53    1.66    1.80    1.96    1.96    0.00    0.01    0.01    0.00    0.00    0.00    0.00    0.00    0.00    0.00    0.00    0.07    0.38    0.77    1.22    1.53    1.67    1.80    1.96    1.96
 2024 364    69     0     0    56.3    56.3     0.1     0.0    8.87   13.02    0.03    0.00    0.00    8.87    5.30    2.14    0.00    0.00     0.1     0.4    0.76    1.21    1.53    1.66    1.80    1.96    1.96    0.00    0.01    0.01    0.00    0.00    0.00    0.00    0.00    0.00    0.00    0.00    0.07    0.37    0.76    1.21    1.53    1.66    1.80    1.97    1.96
 2024 365    70     0     0    56.3    56.2     0.1     0.0    8.87   13.02    0.03    0.00    0.00    8.87    5.33    2.14    0.00    0.00     0.1     0.4    0.75    1.21    1.53    1.66    1.80    1.96    1.96    0.00    0.00    0.01    0.00    0.00    0.00    0.00    0.00    0.00    0.00    0.00    0.06    0.37    0.76    1.21    1.53    1.66    1.80    1.97    1.96
 2024 366    71     0     0    56.3    56.2     0.1     0.0    8.87   13.03    0.03    0.00    0.00    8.87    5.35    2.14    0.00    0.00     0.1     0.4    0.75    1.21    1.53    1.66    1.80    1.96    1.96    0.00    0.00    0.01    0.00    0.00    0.00    0.00    0.00    0.00    0.00    0.00    0.06    0.37    0.75    1.21    1.53    1.66    1.80    1.97    1.96
 2025 001    72     0     0    56.3    56.2     0.1     0.0    8.87   13.03    0.03    0.00    0.00    8.87    5.37    2.14    0.00    0.00     0.1     0.4    0.75    1.20    1.53    1.66    1.80    1.96    1.96    0.00    0.00    0.01    0.00    0.00    0.00    0.00    0.00    0.00    0.00    0.00    0.06    0.37    0.75    1.20    1.53    1.66    1.80    1.97    1.96
 2025 002    73     0     0    56.2    56.2     0.1     0.0    8.87   13.03    0.03    0.00    0.00    8.87    5.39    2.14    0.00    0.00     0.0     0.3    0.74    1.20    1.54    1.66    1.80    1.97    1.96    0.00    0.00    0.01    0.00    0.00    0.00    0.00    0.00    0.00    0.00    0.00    0.05    0.35    0.75    1.21    1.54    1.66    1.80    1.97    1.96
 2025 003    74     0     0    55.6    55.6     0.1     0.0    8.87   13.04    0.03    0.00    0.00    8.87    5.41    2.75    0.00    0.00     0.0     0.3    0.65    1.09    1.45    1.62    1.79    1.97    1.96    0.00    0.00    0.01    0.00    0.00    0.00    0.00    0.00    0.00    0.00    0.00    0.04    0.29    0.65    1.09    1.45    1.62    1.79    1.98    1.97
 2025 004    75     0     0    55.3    55.3     0.1     0.0    8.87   13.04    0.03    0.00    0.00    8.87    5.42    3.04    0.00    0.00     0.0     0.3    0.60    1.04    1.41    1.60    1.78    1.98    1.97    0.00    0.00    0.00    0.00    0.00    0.00    0.00    0.00    0.00    0.00    0.00    0.04    0.26    0.60    1.04    1.42    1.60    1.78    1.98    1.97
 2025 005    76     0     0    55.3    55.2     0.1     0.0    8.87   13.04    0.03    0.00    0.00    8.87    5.44    3.04    0.00    0.00     0.0     0.2    0.59    1.04    1.42    1.61    1.79    1.97    1.97    0.00    0.00    0.00    0.00    0.00    0.00    0.00    0.00    0.00    0.00    0.00    0.02    0.24    0.59    1.04    1.42    1.61    1.79    1.97    1.97
 2025 006    77     0     0    55.3    55.2     0.1     0.0    8.87   13.05    0.03    0.00    0.00    8.87    5.44    3.08    0.00    0.00     0.0     0.2    0.55    1.03    1.43    1.62    1.80    1.97    1.97    0.00    0.00    0.00    0.00    0.00    0.00    0.00    0.00    0.00    0.00    0.00    0.02    0.21    0.56    1.03    1.43    1.62    1.80    1.97    1.97
 2025 007    78     0     0    55.2    55.2     0.0     0.0    8.87   13.05    0.03    0.00    0.00    8.87    5.45    3.12    0.00    0.00     0.0     0.2    0.52    1.00    1.42    1.64    1.82    1.98    1.97    0.00    0.00    0.00    0.00    0.00    0.00    0.00    0.00    0.00    0.00    0.00    0.02    0.19    0.52    1.00    1.42    1.64    1.82    1.98    1.97
 2025 008    79     0     0    55.2    55.1     0.0     0.0    8.87   13.05    0.03    0.00    0.00    8.87    5.46    3.16    0.00    0.00     0.0     0.2    0.48    0.95    1.40    1.65    1.84    1.99    1.98    0.00    0.00    0.00    0.00    0.00    0.00    0.00    0.00    0.00    0.00    0.00    0.02    0.17    0.48    0.96    1.40    1.65    1.85    1.99    1.98
 2025 009    80     0     0    55.1    55.1     0.0     0.0    8.87   13.06    0.03    0.00    0.00    8.87    5.47    3.20    0.00    0.00     0.0     0.1    0.43    0.90    1.37    1.65    1.87    2.01    1.99    0.00    0.00    0.00    0.00    0.00    0.00    0.00    0.00    0.00    0.00    0.00    0.02    0.14    0.43    0.90    1.37    1.65    1.87    2.01    1.99
 2025 010    81     0     0    55.0    55.0     0.0     0.0    8.87   13.06    0.03    0.00    0.00    8.87    5.48    3.26    0.00    0.00     0.0     0.1    0.39    0.85    1.32    1.63    1.88    2.02    2.01    0.00    0.00    0.00    0.00    0.00    0.00    0.00    0.00    0.00    0.00    0.00    0.02    0.13    0.39    0.85    1.33    1.64    1.88    2.02    2.01
 2025 011    82     0     0    53.3    53.2     0.0     0.0    8.87   13.06    0.03    0.00    0.00    8.87    5.48    5.02    0.00    0.00     0.0     0.1    0.32    0.69    1.11    1.42    1.71    1.96    1.99    0.00    0.00    0.00    0.00    0.00    0.00    0.00    0.00    0.00    0.00    0.00    0.01    0.11    0.32    0.69    1.11    1.42    1.71    1.96    1.99
 2025 012    83     0     0    52.5    52.4     0.0     0.0    8.87   13.07    0.03    0.00    0.00    8.87    5.49    5.82    0.00    0.00     0.0     0.1    0.28    0.62    1.01    1.31    1.62    1.93    1.97    0.00    0.00    0.00    0.00    0.00    0.00    0.00    0.00    0.00    0.00    0.00    0.01    0.10    0.28    0.62    1.01    1.31    1.62    1.93    1.97
 2025 013    84     0     0    52.1    52.1     0.0     0.0    8.87   13.07    0.03    0.00    0.00    8.87    5.50    6.17    0.00    0.00     0.0     0.1    0.27    0.59    0.96    1.26    1.57    1.92    1.97    0.00    0.00    0.00    0.00    0.00    0.00    0.00    0.00    0.00    0.00    0.00    0.01    0.09    0.27    0.59    0.96    1.26    1.57    1.92    1.97
 2025 014    85     0     0    52.0    51.9     0.0     0.0    8.87   13.07    0.03    0.00    0.00    8.87    5.51    6.32    0.00    0.00     0.0     0.1    0.26    0.57    0.94    1.24    1.56    1.91    1.97    0.00    0.00    0.00    0.00    0.00    0.00    0.00    0.00    0.00    0.00    0.00    0.01    0.09    0.26    0.57    0.94    1.24    1.56    1.91    1.97
 2025 015    86     0     0    51.9    51.9     0.0     0.0    8.87   13.07    0.03    0.00    0.00    8.87    5.52    6.37    0.00    0.00     0.0     0.1    0.26    0.57    0.93    1.24    1.55    1.91    1.97    0.00    0.00    0.00    0.00    0.00    0.00    0.00    0.00    0.00    0.00    0.00    0.01    0.09    0.26    0.57    0.93    1.24    1.56    1.91    1.97
 2025 016    87     0     0    51.9    51.9     0.0     0.0    8.87   13.07    0.03    0.00    0.00    8.87    5.52    6.37    0.00    0.00     0.0     0.1    0.25    0.56    0.93    1.24    1.55    1.92    1.97    0.00    0.00    0.00    0.00    0.00    0.00    0.00    0.00    0.00    0.00    0.00    0.01    0.09    0.25    0.56    0.93    1.24    1.55    1.92    1.97
 2025 017    88     0     0    51.8    51.8     0.0     0.0    8.87   13.07    0.03    0.00    0.00    8.87    5.53    6.41    0.00    0.00     0.0     0.1    0.25    0.56    0.93    1.23    1.55    1.91    1.97    0.00    0.00    0.00    0.00    0.00    0.00    0.00    0.00    0.00    0.00    0.00    0.01    0.09    0.25    0.56    0.93    1.23    1.55    1.91    1.97
 2025 018    89     0     0    51.8    51.8     0.0     0.0    8.87   13.08    0.03    0.00    0.00    8.87    5.54    6.44    0.00    0.00     0.0     0.1    0.25    0.56    0.93    1.23    1.55    1.91    1.97    0.00    0.00    0.00    0.00    0.00    0.00    0.00    0.00    0.00    0.00    0.00    0.01    0.09    0.25    0.56    0.93    1.23    1.55    1.91    1.97
 2025 019    90     0     0    51.8    51.8     0.0     0.0    8.87   13.08    0.03    0.00    0.00    8.87    5.55    6.44    0.00    0.00     0.0     0.1    0.25    0.55    0.92    1.23    1.55    1.91    1.97    0.00    0.00    0.00    0.00    0.00    0.00    0.00    0.00    0.00    0.00    0.00    0.01    0.09    0.25    0.55    0.92    1.23    1.55    1.91    1.97
 2025 020    91     0     0    51.8    51.8     0.0     0.0    8.87   13.08    0.03    0.00    0.00    8.87    5.55    6.44    0.00    0.00     0.0     0.1    0.25    0.55    0.93    1.23    1.55    1.91    1.97    0.00    0.00    0.00    0.00    0.00    0.00    0.00    0.00    0.00    0.00    0.00    0.01    0.09    0.25    0.55    0.93    1.23    1.55    1.91    1.97
 2025 021    92     0     0    51.8    51.8     0.0     0.0    8.87   13.08    0.03    0.00    0.00    8.87    5.56    6.44    0.00    0.00     0.0     0.1    0.25    0.56    0.93    1.23    1.55    1.91    1.97    0.00    0.00    0.00    0.00    0.00    0.00    0.00    0.00    0.00    0.00    0.00    0.01    0.09    0.25    0.56    0.93    1.23    1.55    1.91    1.97
 2025 022    93     0     0    51.8    51.7     0.0     0.0    8.87   13.08    0.03    0.00    0.00    8.87    5.57    6.44    0.00    0.00     0.0     0.1    0.25    0.56    0.93    1.23    1.55    1.91    1.97    0.00    0.00    0.00    0.00    0.00    0.00    0.00    0.00    0.00    0.00    0.00    0.02    0.09    0.25    0.56    0.93    1.23    1.55    1.91    1.97
 2025 023    94     0     0    51.8    51.7     0.0     0.0    8.87   13.08    0.03    0.00    0.00    8.87    5.58    6.44    0.00    0.00     0.0     0.1    0.25    0.56    0.93    1.24    1.55    1.91    1.97    0.00    0.00    0.00    0.00    0.00    0.00    0.00    0.00    0.00    0.00    0.00    0.02    0.09    0.25    0.56    0.93    1.24    1.55    1.91    1.97
 2025 024    95     0     0    51.8    51.7     0.0     0.0    8.87   13.08    0.03    0.00    0.00    8.87    5.59    6.44    0.00    0.00     0.0     0.1    0.25    0.55    0.93    1.24    1.55    1.91    1.97    0.00    0.00    0.00    0.00    0.00    0.00    0.00    0.00    0.00    0.00    0.00    0.01    0.09    0.25    0.55    0.93    1.24    1.55    1.91    1.97
 2025 025    96     0     0    51.6    51.6     0.0     0.0    8.87   13.08    0.03    0.00    0.00    8.87    5.59    6.58    0.00    0.00     0.0     0.1    0.24    0.54    0.91    1.22    1.54    1.91    1.96    0.00    0.00    0.00    0.00    0.00    0.00    0.00    0.00    0.00    0.00    0.00    0.02    0.09    0.24    0.54    0.91    1.22    1.54    1.91    1.96
 2025 026    97     0     0    51.6    51.6     0.0     0.0    8.87   13.09    0.03    0.00    0.00    8.87    5.60    6.58    0.00    0.00     0.0     0.1    0.24    0.54    0.91    1.22    1.54    1.91    1.96    0.00    0.00    0.00    0.00    0.00    0.00    0.00    0.00    0.00    0.00    0.00    0.02    0.09    0.25    0.54    0.91    1.22    1.54    1.91    1.96
 2025 027    98     0     0    51.6    51.6     0.0     0.0    8.87   13.09    0.03    0.00    0.00    8.87    5.61    6.58    0.00    0.00     0.0     0.1    0.24    0.54    0.91    1.22    1.54    1.90    1.97    0.00    0.00    0.00    0.00    0.00    0.00    0.00    0.00    0.00    0.00    0.00    0.02    0.09    0.24    0.54    0.91    1.22    1.54    1.90    1.97
 2025 028    99     0     0    51.6    51.6     0.0     0.0    8.87   13.09    0.03    0.00    0.00    8.87    5.62    6.58    0.00    0.00     0.0     0.1    0.24    0.53    0.91    1.22    1.54    1.90    1.97    0.00    0.00    0.00    0.00    0.00    0.00    0.00    0.00    0.00    0.00    0.00    0.01    0.08    0.24    0.53    0.91    1.22    1.54    1.90    1.97
 2025 029   100     0     0    51.6    51.6     0.0     0.0    8.88   13.09    0.03    0.00    0.00    8.88    5.63    6.58    0.00    0.00     0.0     0.1    0.22    0.52    0.90    1.22    1.55    1.90    1.97    0.00    0.00    0.00    0.00    0.00    0.00    0.00    0.00    0.00    0.00    0.00    0.01    0.07    0.22    0.52    0.90    1.22    1.55    1.90    1.97
 2025 030   101     0     0    51.6    51.5     0.0     0.0    8.89   13.09    0.03    0.00    0.00    8.88    5.64    6.58    0.00    0.00     0.0     0.1    0.21    0.50    0.89    1.22    1.56    1.91    1.98    0.00    0.00    0.00    0.00    0.00    0.00    0.00    0.00    0.00    0.00    0.00    0.01    0.07    0.21    0.50    0.89    1.22    1.56    1.91    1.98
 2025 031   102     0     0    51.6    51.5     0.0     0.0    8.89   13.09    0.03    0.00    0.00    8.89    5.65    6.58    0.00    0.00     0.0     0.1    0.20    0.48    0.87    1.22    1.56    1.91    1.98    0.00    0.00    0.00    0.00    0.00    0.00    0.00    0.00    0.00    0.00    0.00    0.01    0.06    0.20    0.48    0.87    1.22    1.56    1.91    1.98
 2025 032   103     0     0    50.7    50.6     0.0     0.0    8.89   13.09    0.03    0.00    0.00    8.89    5.66    7.48    0.00    0.00     0.0     0.1    0.17    0.42    0.77    1.10    1.45    1.86    1.96    0.00    0.00    0.00    0.00    0.00    0.00    0.00    0.00    0.00    0.00    0.00    0.01    0.06    0.17    0.42    0.77    1.10    1.45    1.86    1.96
 2025 033   104     0     0    50.3    50.2     0.0     0.0    8.89   13.10    0.03    0.00    0.00    8.89    5.67    7.87    0.00    0.00     0.0     0.1    0.17    0.39    0.72    1.04    1.40    1.84    1.96    0.00    0.00    0.00    0.00    0.00    0.00    0.00    0.00    0.00    0.00    0.00    0.01    0.06    0.17    0.39    0.72    1.04    1.40    1.84    1.96
 2025 034   105     0     0    50.2    50.2     0.0     0.0    8.89   13.10    0.03    0.00    0.00    8.89    5.68    7.87    0.00    0.00     0.0     0.1    0.16    0.39    0.72    1.04    1.40    1.84    1.96    0.00    0.00    0.00    0.00    0.00    0.00    0.00    0.00    0.00    0.00    0.00    0.01    0.06    0.17    0.39    0.72    1.04    1.40    1.84    1.97
 2025 035   106     0     0    50.1    50.1     0.0     0.0    8.89   13.10    0.03    0.00    0.00    8.89    5.69    8.02    0.00    0.00     0.0     0.1    0.16    0.38    0.70    1.02    1.37    1.83    1.96    0.00    0.00    0.00    0.00    0.00    0.00    0.00    0.00    0.00    0.00    0.00    0.01    0.06    0.16    0.38    0.70    1.02    1.37    1.83    1.96
 2025 036   107     0     0    50.1    50.1     0.0     0.0    8.89   13.10    0.03    0.00    0.00    8.89    5.70    8.02    0.00    0.00     0.0     0.1    0.16    0.38    0.70    1.02    1.37    1.83    1.96    0.00    0.00    0.00    0.00    0.00    0.00    0.00    0.00    0.00    0.00    0.00    0.01    0.06    0.16    0.38    0.70    1.02    1.38    1.83    1.96
 2025 037   108     0     0    50.1    50.1     0.0     0.0    8.89   13.10    0.03    0.00    0.00    8.89    5.71    8.02    0.00    0.00     0.0     0.1    0.16    0.38    0.70    1.02    1.38    1.83    1.96    0.00    0.00    0.00    0.00    0.00    0.00    0.00    0.00    0.00    0.00    0.00    0.01    0.06    0.16    0.38    0.70    1.02    1.38    1.83    1.96
 2025 038   109     0     0    50.1    50.0     0.0     0.0    8.89   13.10    0.03    0.00    0.00    8.89    5.72    8.02    0.00    0.00     0.0     0.1    0.16    0.38    0.70    1.02    1.38    1.83    1.96    0.00    0.00    0.00    0.00    0.00    0.00    0.00    0.00    0.00    0.00    0.00    0.01    0.06    0.16    0.38    0.70    1.02    1.38    1.83    1.96
 2025 039   110     0     0    50.1    50.0     0.0     0.0    8.89   13.10    0.03    0.00    0.00    8.89    5.73    8.02    0.00    0.00     0.0     0.1    0.16    0.38    0.70    1.02    1.38    1.83    1.96    0.00    0.00    0.00    0.00    0.00    0.00    0.00    0.00    0.00    0.00    0.00    0.01    0.06    0.16    0.38    0.70    1.02    1.38    1.83    1.96
 2025 040   111     0     0    50.0    50.0     0.0     0.0    8.89   13.11    0.03    0.00    0.00    8.89    5.74    8.02    0.00    0.00     0.0     0.1    0.17    0.39    0.71    1.03    1.38    1.83    1.96    0.00    0.00    0.00    0.00    0.00    0.00    0.00    0.00    0.00    0.00    0.00    0.01    0.06    0.17    0.39    0.71    1.03    1.38    1.83    1.96
 2025 041   112     0     0    50.0    50.0     0.0     0.0    8.89   13.11    0.03    0.00    0.00    8.89    5.75    8.02    0.00    0.00     0.0     0.1    0.17    0.39    0.71    1.03    1.38    1.82    1.96    0.00    0.00    0.00    0.00    0.00    0.00    0.00    0.00    0.00    0.00    0.00    0.02    0.06    0.17    0.39    0.71    1.03    1.38    1.82    1.96
 2025 042   113     0     0    50.0    50.0     0.0     0.0    8.89   13.11    0.03    0.00    0.00    8.89    5.76    8.02    0.00    0.00     0.0     0.1    0.17    0.39    0.71    1.03    1.38    1.82    1.95    0.00    0.00    0.00    0.00    0.00    0.00    0.00    0.00    0.00    0.00    0.00    0.01    0.06    0.17    0.39    0.71    1.03    1.38    1.82    1.96
 2025 043   114     0     0    50.0    50.0     0.0     0.0    8.89   13.11    0.03    0.00    0.00    8.89    5.77    8.02    0.00    0.00     0.0     0.1    0.16    0.38    0.71    1.03    1.39    1.82    1.95    0.00    0.00    0.00    0.00    0.00    0.00    0.00    0.00    0.00    0.00    0.00    0.01    0.05    0.16    0.38    0.71    1.03    1.39    1.82    1.95
 2025 044   115     0     0    50.0    50.0     0.0     0.0    8.89   13.11    0.03    0.00    0.00    8.89    5.78    8.02    0.00    0.00     0.0     0.0    0.15    0.37    0.70    1.04    1.40    1.84    1.95    0.00    0.00    0.00    0.00    0.00    0.00    0.00    0.00    0.00    0.00    0.00    0.01    0.05    0.15    0.37    0.70    1.04    1.40    1.84    1.95
 2025 045   116     0     0    48.7    48.7     0.0     0.0    8.89   13.11    0.03    0.00    0.00    8.89    5.80    9.27    0.00    0.00     0.0     0.0    0.12    0.29    0.57    0.88    1.24    1.76    1.93    0.00    0.00    0.00    0.00    0.00    0.00    0.00    0.00    0.00    0.00    0.00    0.01    0.04    0.12    0.29    0.57    0.88    1.24    1.76    1.93
 2025 046   117     0     0    48.1    48.1     0.0     0.0    8.89   13.11    0.03    0.00    0.00    8.89    5.80    9.89    0.00    0.00     0.0     0.0    0.10    0.25    0.51    0.80    1.17    1.72    1.91    0.00    0.00    0.00    0.00    0.00    0.00    0.00    0.00    0.00    0.00    0.00    0.01    0.03    0.10    0.25    0.51    0.80    1.17    1.72    1.91
 2025 047   118     0     0    47.8    47.8     0.0     0.0    8.89   13.11    0.03    0.00    0.00    8.89    5.81   10.16    0.00    0.00     0.0     0.0    0.09    0.24    0.48    0.77    1.14    1.70    1.90    0.00    0.00    0.00    0.00    0.00    0.00    0.00    0.00    0.00    0.00    0.00    0.01    0.03    0.09    0.24    0.48    0.77    1.14    1.70    1.90
 2025 048   119     0     0    47.7    47.7     0.0     0.0    8.89   13.11    0.03    0.00    0.00    8.89    5.82   10.28    0.00    0.00     0.0     0.0    0.09    0.23    0.47    0.76    1.13    1.69    1.90    0.00    0.00    0.00    0.00    0.00    0.00    0.00    0.00    0.00    0.00    0.00    0.01    0.03    0.09    0.23    0.47    0.76    1.13    1.69    1.90
 2025 049   120     0     0    47.7    47.7     0.0     0.0    8.89   13.11    0.03    0.00    0.00    8.89    5.83   10.30    0.00    0.00     0.0     0.0    0.09    0.23    0.47    0.75    1.12    1.69    1.90    0.00    0.00    0.00    0.00    0.00    0.00    0.00    0.00    0.00    0.00    0.00    0.01    0.03    0.09    0.23    0.47    0.75    1.12    1.69    1.90
 2025 050   121     0     0    47.7    47.7     0.0     0.0    8.89   13.11    0.03    0.00    0.00    8.89    5.84   10.30    0.00    0.00     0.0     0.0    0.09    0.23    0.47    0.76    1.12    1.69    1.90    0.00    0.00    0.00    0.00    0.00    0.00    0.00    0.00    0.00    0.00    0.00    0.01    0.03    0.09    0.23    0.47    0.76    1.13    1.69    1.90
 2025 051   122     0     0    47.7    47.6     0.0     0.0    8.89   13.11    0.03    0.00    0.00    8.89    5.84   10.30    0.00    0.00     0.0     0.0    0.09    0.23    0.47    0.76    1.13    1.69    1.90    0.00    0.00    0.00    0.00    0.00    0.00    0.00    0.00    0.00    0.00    0.00    0.01    0.03    0.09    0.23    0.47    0.76    1.13    1.69    1.90
 2025 052   123     0     0    47.6    47.6     0.0     0.0    8.89   13.11    0.03    0.00    0.00    8.89    5.85   10.30    0.00    0.00     0.0     0.0    0.09    0.23    0.47    0.76    1.13    1.68    1.89    0.00    0.00    0.00    0.00    0.00    0.00    0.00    0.00    0.00    0.00    0.00    0.01    0.03    0.09    0.23    0.47    0.76    1.13    1.68    1.89
 2025 053   124     0     0    47.6    47.6     0.0     0.0    8.89   13.11    0.03    0.00    0.00    8.89    5.86   10.30    0.00    0.00     0.0     0.0    0.10    0.24    0.48    0.77    1.14    1.68    1.89    0.00    0.00    0.00    0.00    0.00    0.00    0.00    0.00    0.00    0.00    0.00    0.01    0.03    0.10    0.24    0.48    0.77    1.14    1.68    1.89
 2025 054   125     0     0    47.6    47.6     0.0     0.0    8.89   13.11    0.03    0.00    0.00    8.89    5.87   10.30    0.00    0.00     0.0     0.0    0.10    0.24    0.48    0.77    1.14    1.68    1.89    0.00    0.00    0.00    0.00    0.00    0.00    0.00    0.00    0.00    0.00    0.00    0.01    0.03    0.10    0.24    0.48    0.77    1.14    1.68    1.89
 2025 055   126     0     0    47.6    47.6     0.0     0.0    8.89   13.11    0.03    0.00    0.00    8.89    5.88   10.30    0.00    0.00     0.0     0.0    0.10    0.24    0.48    0.78    1.15    1.68    1.89    0.00    0.00    0.00    0.00    0.00    0.00    0.00    0.00    0.00    0.00    0.00    0.01    0.04    0.10    0.24    0.48    0.78    1.15    1.68    1.89
 2025 056   127     0     0    47.6    47.6     0.0     0.0    8.89   13.12    0.03    0.00    0.00    8.89    5.89   10.30    0.00    0.00     0.0     0.0    0.10    0.24    0.48    0.78    1.15    1.68    1.89    0.00    0.00    0.00    0.00    0.00    0.00    0.00    0.00    0.00    0.00    0.00    0.01    0.04    0.10    0.24    0.48    0.78    1.15    1.68    1.89
 2025 057   128     0     0    47.7    47.6     0.1     0.0    8.95   13.12    0.03    0.00    0.00    8.95    5.91   10.30    0.00    0.00     0.0     0.0    0.10    0.24    0.48    0.78    1.15    1.68    1.89    0.02    0.02    0.00    0.00    0.00    0.00    0.00    0.00    0.00    0.00    0.02    0.03    0.04    0.10    0.24    0.48    0.78    1.15    1.68    1.89
 2025 058   129     0     0    47.6    47.6     0.1     0.0    8.97   13.12    0.03    0.00    0.00    8.97    5.93   10.30    0.00    0.00     0.0     0.0    0.10    0.24    0.48    0.78    1.15    1.68    1.89    0.01    0.01    0.00    0.00    0.00    0.00    0.00    0.00    0.00    0.00    0.01    0.03    0.04    0.10    0.24    0.48    0.78    1.15    1.68    1.89
 2025 059   130     0     0    47.6    47.6     0.1     0.0    8.97   13.13    0.03    0.00    0.00    8.97    5.94   10.30    0.00    0.00     0.0     0.0    0.10    0.24    0.48    0.78    1.15    1.68    1.88    0.01    0.01    0.00    0.00    0.00    0.00    0.00    0.00    0.00    0.00    0.01    0.02    0.04    0.10    0.24    0.48    0.78    1.15    1.68    1.89
 2025 060   131     0     0    47.6    47.6     0.1     0.0    8.97   13.13    0.03    0.00    0.00    8.97    5.96   10.30    0.00    0.00     0.0     0.0    0.10    0.24    0.48    0.78    1.15    1.68    1.88    0.01    0.01    0.00    0.00    0.00    0.00    0.00    0.00    0.00    0.00    0.01    0.02    0.04    0.10    0.24    0.48    0.78    1.15    1.68    1.89
 2025 061   132     0     0    47.6    47.5     0.1     0.0    8.97   13.14    0.03    0.00    0.00    8.97    5.98   10.30    0.00    0.00     0.0     0.0    0.09    0.23    0.46    0.77    1.14    1.68    1.89    0.01    0.01    0.00    0.00    0.00    0.00    0.00    0.00    0.00    0.00    0.01    0.02    0.04    0.10    0.23    0.47    0.77    1.15    1.68    1.89
 2025 062   133     0     0    47.6    47.5     0.1     0.0    8.97   13.14    0.03    0.00    0.00    8.97    6.00   10.30    0.00    0.00     0.0     0.0    0.10    0.23    0.47    0.78    1.15    1.67    1.89    0.00    0.01    0.00    0.00    0.00    0.00    0.00    0.00    0.00    0.00    0.01    0.02    0.04    0.10    0.24    0.47    0.78    1.15    1.67    1.89
 2025 063   134     0     0    47.6    47.5     0.0     0.0    8.97   13.14    0.03    0.00    0.00    8.97    6.02   10.30    0.00    0.01     0.0     0.0    0.10    0.24    0.47    0.79    1.16    1.67    1.88    0.00    0.01    0.00    0.00    0.00    0.00    0.00    0.00    0.00    0.00    0.01    0.02    0.04    0.10    0.24    0.48    0.79    1.16    1.67    1.89
 2025 064   135     0     0    47.5    47.5     0.0     0.0    8.97   13.15    0.03    0.00    0.00    8.97    6.05   10.30    0.00    0.01     0.0     0.0    0.10    0.24    0.48    0.79    1.17    1.67    1.88    0.00    0.01    0.00    0.00    0.00    0.00    0.00    0.00    0.00    0.00    0.01    0.02    0.04    0.11    0.25    0.48    0.79    1.17    1.67    1.88
 2025 065   136     0     0    47.5    47.5     0.0     0.0    8.97   13.15    0.03    0.00    0.00    8.97    6.07   10.30    0.00    0.01     0.0     0.0    0.10    0.24    0.47    0.79    1.17    1.67    1.88    0.00    0.01    0.00    0.00    0.00    0.00    0.00    0.00    0.00    0.00    0.01    0.02    0.04    0.10    0.24    0.48    0.79    1.17    1.67    1.88
 2025 066   137     0     0    47.5    47.4     0.0     0.0    8.98   13.15    0.03    0.00    0.00    8.98    6.09   10.30    0.00    0.01     0.0     0.0    0.10    0.24    0.47    0.79    1.17    1.67    1.88    0.00    0.00    0.00    0.00    0.00    0.00    0.00    0.00    0.00    0.00    0.01    0.02    0.04    0.10    0.24    0.47    0.79    1.17    1.67    1.88
 2025 067   138     0     0    47.5    47.4     0.1     0.0    9.01   13.16    0.03    0.00    0.00    9.01    6.12   10.30    0.00    0.01     0.0     0.0    0.10    0.23    0.46    0.79    1.17    1.67    1.88    0.01    0.01    0.00    0.00    0.00    0.00    0.00    0.00    0.00    0.00    0.01    0.03    0.04    0.10    0.23    0.47    0.79    1.17    1.67    1.88
 2025 068   139     0     0    47.6    47.4     0.2     0.0    9.13   13.16    0.03    0.00    0.00    9.12    6.15   10.30    0.00    0.01     0.0     0.0    0.10    0.23    0.46    0.79    1.17    1.67    1.88    0.03    0.05    0.01    0.00    0.00    0.00    0.00    0.00    0.00    0.00    0.04    0.07    0.05    0.10    0.23    0.46    0.79    1.17    1.67    1.88
 2025 069   140     0     0    47.7    47.4     0.3     0.0    9.30   13.18    0.03    0.00    0.00    9.30    6.18   10.30    0.00    0.01     0.0     0.0    0.09    0.23    0.45    0.78    1.17    1.67    1.88    0.07    0.11    0.03    0.01    0.01    0.01    0.01    0.01    0.01    0.01    0.08    0.13    0.07    0.10    0.23    0.46    0.79    1.18    1.68    1.89
 2025 070   141     0     0    47.9    47.4     0.5     0.0    9.52   13.21    0.03    0.00    0.00    9.52    6.22   10.30    0.00    0.01     0.0     0.0    0.09    0.22    0.45    0.78    1.17    1.67    1.88    0.12    0.17    0.05    0.01    0.01    0.01    0.01    0.01    0.01    0.01    0.14    0.20    0.09    0.11    0.23    0.46    0.79    1.18    1.68    1.89
 2025 071   142     0     0    48.1    47.4     0.6     0.0    9.74   13.27    0.03    0.00    0.00    9.74    6.28   10.30    0.00    0.03     0.0     0.0    0.09    0.22    0.44    0.78    1.17    1.67    1.88    0.16    0.22    0.06    0.02    0.02    0.02    0.02    0.01    0.01    0.01    0.18    0.27    0.10    0.11    0.23    0.46    0.80    1.18    1.68    1.89
 2025 072   143     0     0    48.2    47.4     0.7     0.0    9.92   13.33    0.03    0.00    0.00    9.92    6.36   10.30    0.00    0.03     0.1     0.0    0.09    0.22    0.44    0.78    1.17    1.67    1.88    0.18    0.25    0.07    0.02    0.02    0.02    0.02    0.02    0.01    0.01    0.21    0.31    0.12    0.11    0.23    0.46    0.80    1.19    1.68    1.89
 2025 073   144     0     0    48.2    47.5     0.7     0.0   10.03   13.39    0.03    0.00    0.00   10.03    6.44   10.30    0.00    0.04     0.1     0.1    0.09    0.22    0.44    0.78    1.18    1.67    1.88    0.17    0.24    0.07    0.02    0.02    0.02    0.02    0.02    0.01    0.01    0.21    0.32    0.12    0.11    0.23    0.46    0.80    1.19    1.69    1.89
 2025 074   145     0     0    48.1    47.5     0.7     0.0   10.07   13.45    0.03    0.00    0.00   10.07    6.53   10.30    0.00    0.05     0.1     0.1    0.09    0.22    0.44    0.78    1.18    1.67    1.88    0.13    0.21    0.06    0.02    0.02    0.02    0.02    0.02    0.01    0.01    0.18    0.30    0.12    0.11    0.23    0.46    0.80    1.19    1.69    1.89
 2025 075   146     0     0    48.1    47.5     0.6     0.0   10.07   13.50    0.03    0.00    0.00   10.07    6.61   10.30    0.00    0.05     0.1     0.1    0.10    0.22    0.44    0.79    1.18    1.67    1.88    0.10    0.18    0.06    0.02    0.01    0.02    0.02    0.01    0.01    0.01    0.15    0.28    0.12    0.11    0.23    0.46    0.80    1.20    1.68    1.89
 2025 076   147     0     0    48.0    47.5     0.5     0.0   10.07   13.54    0.03    0.00    0.00   10.07    6.69   10.30    0.00    0.06     0.1     0.1    0.10    0.22    0.45    0.79    1.19    1.67    1.88    0.07    0.15    0.05    0.01    0.01    0.01    0.01    0.01    0.01    0.01    0.13    0.25    0.12    0.11    0.24    0.46    0.81    1.20    1.68    1.89
 2025 077   148     0     0    47.9    47.5     0.4     0.0   10.07   13.57    0.03    0.00    0.00   10.07    6.76   10.30    0.00    0.05     0.1     0.1    0.10    0.22    0.44    0.79    1.19    1.67    1.88    0.06    0.13    0.05    0.01    0.01    0.01    0.01    0.01    0.01    0.01    0.11    0.23    0.11    0.11    0.23    0.45    0.80    1.20    1.68    1.89
 2025 078   149     0     0    47.8    47.5     0.4     0.0   10.07   13.60    0.03    0.00    0.00   10.07    6.82   10.30    0.00    0.05     0.1     0.1    0.10    0.22    0.44    0.79    1.19    1.67    1.88    0.05    0.11    0.04    0.01    0.01    0.01    0.01    0.01    0.01    0.01    0.10    0.21    0.11    0.11    0.23    0.45    0.80    1.20    1.68    1.89
 2025 079   150     0     0    47.8    47.4     0.3     0.0   10.07   13.63    0.03    0.00    0.00   10.07    6.88   10.30    0.00    0.05     0.1     0.1    0.10    0.21    0.43    0.78    1.19    1.67    1.88    0.04    0.10    0.04    0.01    0.01    0.01    0.01    0.01    0.01    0.01    0.09    0.19    0.11    0.11    0.22    0.44    0.80    1.20    1.68    1.89
 2025 080   151     0     0    47.7    47.4     0.3     0.0   10.07   13.65    0.03    0.00    0.00   10.07    6.93   10.30    0.00    0.05     0.1     0.1    0.09    0.21    0.43    0.78    1.19    1.67    1.88    0.03    0.09    0.03    0.01    0.01    0.01    0.01    0.01    0.01    0.01    0.08    0.18    0.10    0.10    0.22    0.44    0.79    1.20    1.68    1.89
 2025 081   152     0     0    47.7    47.4     0.3     0.0   10.07   13.68    0.03    0.00    0.00   10.07    6.98   10.30    0.00    0.05     0.1     0.1    0.09    0.21    0.42    0.78    1.20    1.67    1.88    0.03    0.07    0.03    0.01    0.01    0.01    0.01    0.01    0.01    0.01    0.08    0.17    0.10    0.10    0.21    0.43    0.79    1.20    1.68    1.89
 2025 082   153     0     0    47.7    47.4     0.3     0.0   10.16   13.70    0.03    0.00    0.00   10.16    7.03   10.30    0.00    0.05     0.1     0.1    0.09    0.20    0.41    0.77    1.20    1.67    1.88    0.05    0.09    0.03    0.01    0.01    0.01    0.01    0.01    0.01    0.01    0.09    0.19    0.10    0.10    0.21    0.42    0.78    1.21    1.68    1.89
 2025 083   154     0     0    47.9    47.4     0.5     0.0   10.38   13.74    0.03    0.00    0.00   10.38    7.09   10.30    0.00    0.03     0.1     0.1    0.09    0.20    0.41    0.77    1.20    1.67    1.88    0.11    0.16    0.05    0.01    0.01    0.01    0.01    0.01    0.01    0.01    0.14    0.25    0.12    0.11    0.21    0.42    0.78    1.21    1.68    1.89
 2025 084   155     0     0    48.1    47.4     0.7     0.0   10.67   13.79    0.03    0.00    0.00   10.67    7.15   10.30    0.00    0.04     0.1     0.1    0.10    0.20    0.41    0.77    1.20    1.67    1.88    0.18    0.23    0.07    0.02    0.02    0.02    0.02    0.02    0.01    0.01    0.23    0.32    0.15    0.11    0.22    0.43    0.79    1.22    1.69    1.89
 2025 085   156     0     0    48.4    47.4     0.9     0.0   10.99   13.87    0.03    0.00    0.00   10.98    7.23   10.30    0.00    0.06     0.1     0.1    0.10    0.21    0.42    0.78    1.21    1.67    1.88    0.25    0.30    0.09    0.02    0.02    0.02    0.02    0.02    0.02    0.01    0.31    0.40    0.17    0.12    0.23    0.45    0.80    1.23    1.69    1.89
 2025 086   157     0     0    48.5    47.5     1.1     0.0   11.25   13.97    0.03    0.00    0.00   11.25    7.32   10.30    0.00    0.08     0.1     0.1    0.10    0.21    0.42    0.79    1.21    1.67    1.88    0.29    0.34    0.10    0.03    0.03    0.03    0.03    0.02    0.02    0.01    0.37    0.47    0.19    0.13    0.23    0.45    0.81    1.23    1.69    1.89
 2025 087   158     0     0    48.7    47.5     1.1     0.0   11.48   14.08    0.03    0.00    0.00   11.48    7.43   10.30    0.00    0.10     0.1     0.1    0.11    0.21    0.43    0.80    1.23    1.67    1.88    0.30    0.37    0.11    0.03    0.03    0.03    0.03    0.02    0.02    0.02    0.40    0.51    0.21    0.14    0.24    0.45    0.83    1.25    1.69    1.89
 2025 088   159     0     0    48.7    47.6     1.1     0.0   11.70   14.19    0.03    0.00    0.00   11.70    7.58   10.30    0.00    0.12     0.2     0.1    0.11    0.21    0.43    0.80    1.25    1.67    1.87    0.30    0.38    0.11    0.03    0.03    0.03    0.03    0.03    0.02    0.02    0.42    0.53    0.22    0.14    0.24    0.46    0.83    1.28    1.69    1.89
 2025 089   160     0     0    48.8    47.6     1.2     0.0   11.89   14.30    0.03    0.00    0.00   11.89    7.72   10.30    0.00    0.13     0.2     0.1    0.11    0.21    0.43    0.80    1.26    1.68    1.87    0.29    0.38    0.11    0.03    0.03    0.03    0.03    0.03    0.02    0.02    0.42    0.55    0.22    0.14    0.24    0.46    0.83    1.29    1.70    1.89
 2025 090   161     0     0    48.8    47.6     1.1     0.0   12.03   14.40    0.03    0.00    0.00   12.03    7.87   10.30    0.00    0.14     0.2     0.1    0.11    0.21    0.42    0.79    1.26    1.70    1.87    0.26    0.36    0.11    0.03    0.03    0.03    0.03    0.03    0.02    0.02    0.40    0.55    0.23    0.14    0.24    0.45    0.82    1.29    1.72    1.89
 2025 091   162     0     0    48.7    47.7     1.1     0.0   12.14   14.50    0.03    0.00    0.00   12.14    8.02   10.30    0.00    0.14     0.2     0.1    0.11    0.21    0.42    0.78    1.26    1.71    1.87    0.24    0.34    0.10    0.03    0.03    0.03    0.03    0.03    0.02    0.02    0.38    0.54    0.23    0.14    0.24    0.45    0.81    1.28    1.73    1.89
 2025 092   163     0     0    48.7    47.7     1.0     0.0   12.24   14.60    0.03    0.00    0.00   12.24    8.18   10.30    0.00    0.15     0.2     0.1    0.11    0.21    0.41    0.76    1.22    1.71    1.92    0.21    0.32    0.10    0.03    0.03    0.03    0.03    0.03    0.02    0.02    0.36    0.52    0.22    0.14    0.23    0.44    0.78    1.24    1.73    1.93
 2025 093   164     0     0    48.6    47.7     1.0     0.0   12.35   14.68    0.03    0.00    0.00   12.35    8.33   10.30    0.00    0.16     0.2     0.1    0.12    0.21    0.41    0.76    1.22    1.70    1.91    0.19    0.30    0.09    0.03    0.03    0.03    0.03    0.03    0.02    0.02    0.35    0.50    0.22    0.14    0.24    0.44    0.79    1.25    1.73    1.93
 2025 094   165     0     0    48.6    47.7     1.0     0.0   12.49   14.77    0.03    0.00    0.00   12.49    8.48   10.30    0.00    0.19     0.2     0.1    0.12    0.22    0.43    0.77    1.23    1.70    1.91    0.19    0.30    0.09    0.03    0.03    0.03    0.03    0.03    0.02    0.02    0.38    0.50    0.22    0.15    0.24    0.45    0.80    1.26    1.72    1.92
 2025 095   166     0     0    48.7    47.6     1.0     0.0   12.69   14.87    0.03    0.00    0.00   12.69    8.63   10.30    0.00    0.21     0.2     0.1    0.12    0.22    0.44    0.78    1.24    1.70    1.90    0.21    0.31    0.10    0.03    0.03    0.03    0.03    0.03    0.02    0.02    0.42    0.51    0.23    0.15    0.25    0.46    0.81    1.26    1.72    1.92
 2025 096   167     0     0    48.8    47.7     1.1     0.0   12.95   14.98    0.03    0.00    0.00   12.95    8.78   10.30    0.00    0.21     0.2     0.1    0.12    0.22    0.43    0.78    1.23    1.70    1.91    0.24    0.35    0.11    0.03    0.03    0.03    0.03    0.03    0.02    0.02    0.46    0.56    0.24    0.16    0.25    0.46    0.81    1.26    1.73    1.92
 2025 097   168     0     0    48.8    47.7     1.2     0.0   13.17   15.09    0.03    0.00    0.00   13.17    8.94   10.30    0.00    0.23     0.2     0.1    0.12    0.22    0.42    0.77    1.23    1.71    1.91    0.26    0.36    0.11    0.03    0.03    0.03    0.03    0.03    0.02    0.02    0.48    0.59    0.25    0.16    0.25    0.45    0.80    1.26    1.73    1.93
 2025 098   169     0     0    48.8    47.7     1.1     0.0   13.31   15.20    0.03    0.00    0.00   13.31    9.09   10.30    0.00    0.24     0.2     0.1    0.12    0.21    0.41    0.76    1.22    1.71    1.91    0.26    0.35    0.11    0.03    0.03    0.03    0.03    0.03    0.02    0.02    0.49    0.59    0.25    0.15    0.25    0.45    0.79    1.25    1.73    1.93
 2025 099   170     0     0    48.8    47.7     1.1     0.0   13.40   15.30    0.03    0.00    0.00   13.40    9.23   10.30    0.00    0.25     0.3     0.1    0.12    0.21    0.41    0.75    1.22    1.71    1.91    0.24    0.33    0.10    0.03    0.03    0.03    0.03    0.03    0.02    0.02    0.49    0.58    0.24    0.15    0.24    0.44    0.79    1.25    1.73    1.93
 2025 100   171     0     0    48.7    47.7     1.0     0.0   13.44   15.39    0.03    0.00    0.00   13.44    9.38   10.30    0.00    0.26     0.3     0.1    0.12    0.21    0.40    0.75    1.21    1.71    1.91    0.23    0.29    0.09    0.03    0.03    0.03    0.03    0.03    0.02    0.02    0.49    0.55    0.24    0.15    0.23    0.43    0.78    1.24    1.73    1.93
 2025 101   172     0     0    48.5    47.6     0.9     0.0   13.45   15.47    0.03    0.00    0.00   13.45    9.52   10.30    0.00    0.27     0.3     0.1    0.11    0.20    0.39    0.74    1.21    1.71    1.91    0.21    0.25    0.08    0.03    0.02    0.03    0.03    0.02    0.02    0.02    0.48    0.50    0.22    0.14    0.23    0.42    0.76    1.23    1.73    1.93
 2025 102   173     0     0    48.5    47.6     0.9     0.0   13.52   15.54    0.03    0.00    0.00   13.52    9.65   10.30    0.00    0.28     0.3     0.1    0.11    0.20    0.38    0.73    1.20    1.71    1.91    0.20    0.23    0.08    0.02    0.02    0.02    0.03    0.02    0.02    0.02    0.49    0.49    0.22    0.14    0.22    0.41    0.75    1.22    1.73    1.93
 2025 103   174     0     0    48.5    47.6     0.9     0.0   13.67   15.62    0.03    0.00    0.00   13.67    9.79   10.30    0.00    0.30     0.3     0.1    0.11    0.19    0.37    0.72    1.19    1.72    1.92    0.21    0.25    0.08    0.03    0.03    0.03    0.03    0.02    0.02    0.02    0.51    0.51    0.22    0.14    0.22    0.40    0.74    1.21    1.74    1.93
 2025 104   175     0     0    48.6    47.5     1.0     0.0   13.89   15.71    0.03    0.00    0.00   13.89    9.94   10.30    0.00    0.31     0.3     0.1    0.11    0.19    0.37    0.71    1.18    1.72    1.92    0.23    0.28    0.09    0.03    0.03    0.03    0.03    0.03    0.02    0.02    0.54    0.55    0.23    0.14    0.22    0.39    0.74    1.21    1.74    1.94
 2025 105   176     0     0    48.7    47.5     1.2     0.0   14.20   15.83    0.03    0.00    0.00   14.19   10.10   10.30    0.00    0.32     0.3     0.1    0.11    0.18    0.36    0.70    1.17    1.72    1.92    0.27    0.34    0.11    0.03    0.03    0.03    0.03    0.03    0.03    0.02    0.59    0.61    0.25    0.14    0.22    0.39    0.73    1.20    1.74    1.94
 2025 106   177     0     0    48.9    47.6     1.3     0.0   14.58   15.98    0.03    0.00    0.00   14.58   10.27   10.30    0.00    0.35     0.3     0.1    0.11    0.18    0.35    0.69    1.16    1.72    1.92    0.32    0.40    0.12    0.04    0.04    0.04    0.04    0.03    0.03    0.02    0.66    0.69    0.27    0.15    0.22    0.39    0.73    1.19    1.75    1.94
 2025 107   178     0     0    49.2    47.6     1.6     0.0   15.05   16.18    0.03    0.00    0.00   15.05   10.45   10.30    0.00    0.38     0.3     0.2    0.11    0.18    0.35    0.68    1.15    1.72    1.93    0.37    0.47    0.15    0.05    0.05    0.04    0.05    0.04    0.03    0.02    0.75    0.80    0.30    0.16    0.22    0.39    0.72    1.19    1.76    1.95
 2025 108   179     0     0    49.5    47.7     1.7     0.0   15.54   16.41    0.03    0.00    0.00   15.53   10.67   10.30    0.00    0.41     0.4     0.2    0.11    0.18    0.34    0.67    1.14    1.73    1.93    0.43    0.51    0.16    0.05    0.05    0.05    0.05    0.04    0.04    0.03    0.83    0.89    0.33    0.16    0.23    0.39    0.72    1.18    1.76    1.96
 2025 109   180     0     0    49.7    47.8     1.9     0.0   15.98   16.66    0.03    0.00    0.00   15.98   10.92   10.30    0.00    0.43     0.4     0.2    0.11    0.18    0.34    0.66    1.13    1.73    1.93    0.46    0.54    0.17    0.06    0.05    0.05    0.05    0.05    0.04    0.03    0.89    0.96    0.35    0.17    0.23    0.39    0.72    1.18    1.77    1.96
 2025 110   181     0     0    49.8    47.9     1.9     0.0   16.37   16.91    0.03    0.00    0.00   16.37   11.16   10.30    0.00    0.47     0.5     0.2    0.11    0.18    0.33    0.66    1.12    1.73    1.94    0.47    0.55    0.18    0.06    0.06    0.06    0.06    0.05    0.04    0.03    0.94    1.02    0.37    0.18    0.24    0.39    0.71    1.17    1.77    1.97
 2025 111   182     0     0    49.9    48.0     2.0     0.0   16.77   17.16    0.03    0.00    0.00   16.77   11.43   10.30    0.00    0.49     0.5     0.2    0.12    0.18    0.33    0.65    1.11    1.74    1.94    0.48    0.55    0.18    0.06    0.06    0.06    0.06    0.05    0.04    0.03    0.97    1.06    0.38    0.18    0.24    0.39    0.71    1.16    1.78    1.97
 2025 112   183     0     0    50.0    48.0     1.9     0.0   17.10   17.40    0.03    0.00    0.00   17.10   11.72   10.30    0.00    0.50     0.5     0.2    0.12    0.18    0.33    0.64    1.10    1.74    1.94    0.47    0.54    0.18    0.06    0.06    0.06    0.06    0.05    0.04    0.03    0.97    1.08    0.39    0.18    0.24    0.38    0.70    1.16    1.78    1.97
 2025 113   184     0     0    50.0    48.1     1.9     0.0   17.42   17.64    0.03    0.00    0.00   17.42   12.00   10.30    0.00    0.39     0.7     0.2    0.12    0.18    0.32    0.64    1.09    1.74    1.95    0.47    0.53    0.17    0.06    0.06    0.06    0.06    0.05    0.04    0.03    0.86    1.19    0.41    0.18    0.24    0.38    0.69    1.15    1.78    1.98
 2025 114   185     0     0    50.1    48.1     2.0     0.0   17.83   17.89    0.03    0.00    0.00   17.83   12.33   10.30    0.00    0.42     0.6     0.3    0.13    0.19    0.33    0.64    1.10    1.74    1.95    0.49    0.54    0.17    0.06    0.06    0.06    0.06    0.05    0.04    0.03    0.91    1.11    0.46    0.19    0.24    0.39    0.70    1.15    1.78    1.98
 2025 115   186     0     0    50.2    48.1     2.0     0.0   18.21   18.13    0.03    0.00    0.00   18.20   12.63   10.30    0.00    0.41     0.5     0.3    0.15    0.19    0.34    0.64    1.09    1.74    1.95    0.52    0.55    0.17    0.07    0.06    0.06    0.06    0.05    0.04    0.03    0.93    1.10    0.49    0.21    0.25    0.39    0.70    1.15    1.78    1.98
 2025 116   187     0     0    50.2    48.2     2.0     0.0   18.52   18.37    0.03    0.00    0.00   18.52   12.94   10.30    0.00    0.41     0.5     0.3    0.17    0.20    0.34    0.64    1.09    1.74    1.95    0.52    0.55    0.17    0.06    0.06    0.06    0.06    0.05    0.04    0.03    0.93    1.07    0.49    0.23    0.26    0.39    0.70    1.14    1.78    1.98
 2025 117   188     0     0    50.1    48.2     2.0     0.0   18.83   18.60    0.03    0.00    0.00   18.83   13.30   10.30    0.00    0.44     0.5     0.3    0.18    0.20    0.33    0.62    1.07    1.76    1.96    0.49    0.53    0.17    0.06    0.06    0.06    0.06    0.05    0.04    0.03    0.93    1.01    0.47    0.24    0.26    0.39    0.68    1.13    1.80    1.99
 2025 118   189     0     0    50.0    48.1     1.9     0.0   19.15   18.82    0.03    0.00    0.00   19.15   13.73   10.30    0.00    0.48     0.5     0.3    0.18    0.20    0.34    0.63    1.08    1.76    1.96    0.45    0.52    0.16    0.06    0.06    0.06    0.06    0.05    0.04    0.03    0.93    0.97    0.45    0.24    0.26    0.40    0.69    1.13    1.80    1.99
 2025 119   190     0     0    49.9    48.0     1.9     0.0   19.48   19.04    0.03    0.00    0.00   19.48   14.17   10.30    0.00    0.51     0.4     0.3    0.17    0.21    0.35    0.64    1.09    1.76    1.95    0.43    0.50    0.16    0.06    0.06    0.06    0.06    0.05    0.04    0.03    0.94    0.93    0.43    0.23    0.26    0.40    0.70    1.14    1.80    1.99
 2025 120   191     0     0    49.9    48.0     1.9     0.0   19.87   19.27    0.03    0.00    0.00   19.87   14.59   10.30    0.00    0.57     0.4     0.3    0.17    0.21    0.36    0.65    1.09    1.75    1.95    0.43    0.50    0.16    0.06    0.06    0.06    0.06    0.05    0.04    0.03    1.00    0.92    0.42    0.23    0.27    0.42    0.71    1.15    1.79    1.98
 2025 121   192     0     0    49.9    48.0     1.9     0.0   20.32   19.53    0.03    0.00    0.00   20.32   14.99   10.30    0.00    0.57     0.4     0.3    0.17    0.21    0.35    0.64    1.08    1.75    1.96    0.45    0.52    0.16    0.07    0.06    0.06    0.06    0.05    0.05    0.03    1.02    0.95    0.42    0.23    0.27    0.41    0.70    1.13    1.79    1.99
 2025 122   193     0     0    50.1    48.0     2.1     0.0   20.87   19.85    0.03    0.00    0.00   20.87   15.38   10.30    0.00    0.60     0.5     0.3    0.17    0.21    0.35    0.63    1.06    1.75    1.96    0.47    0.55    0.17    0.07    0.06    0.06    0.06    0.06    0.05    0.04    1.07    1.01    0.43    0.24    0.27    0.41    0.69    1.12    1.79    2.00
 2025 123   194     0     0    50.3    48.1     2.2     0.0   21.47   20.22    0.03    0.00    0.00   21.47   15.76   10.30    0.00    0.46     0.6     0.3    0.17    0.21    0.34    0.62    1.05    1.74    1.97    0.50    0.58    0.18    0.08    0.07    0.07    0.07    0.06    0.05    0.04    0.95    1.21    0.49    0.25    0.28    0.41    0.69    1.11    1.80    2.00
 2025 124   195     0     0    50.5    48.2     2.3     0.0   22.16   20.62    0.03    0.00    0.00   22.16   16.20   10.30    0.00    0.44     0.6     0.4    0.20    0.22    0.35    0.62    1.05    1.74    1.97    0.56    0.61    0.19    0.08    0.07    0.07    0.07    0.06    0.05    0.04    1.01    1.22    0.55    0.28    0.29    0.42    0.69    1.11    1.79    2.01
 2025 125   196     0     0    50.8    48.3     2.4     0.0   22.77   21.02    0.03    0.00    0.00   22.77   16.59   10.30    0.00    0.49     0.6     0.4    0.22    0.23    0.34    0.60    1.02    1.73    2.02    0.63    0.63    0.20    0.08    0.08    0.07    0.07    0.07    0.06    0.04    1.11    1.20    0.55    0.30    0.30    0.42    0.67    1.08    1.79    2.06
 2025 126   197     0     0    50.8    48.4     2.4     0.0   23.35   21.42    0.03    0.00    0.00   23.35   17.12   10.30    0.00    0.54     0.6     0.3    0.23    0.23    0.34    0.58    0.98    1.71    2.02    0.61    0.62    0.19    0.08    0.08    0.07    0.08    0.07    0.06    0.04    1.15    1.18    0.54    0.31    0.31    0.41    0.65    1.05    1.77    2.06
 2025 127   198     0     0    50.7    48.3     2.3     0.0   23.82   21.76    0.03    0.00    0.00   23.82   17.74   10.30    0.00    0.59     0.5     0.3    0.22    0.23    0.34    0.58    0.99    1.70    2.02    0.56    0.59    0.19    0.08    0.08    0.07    0.08    0.07    0.06    0.04    1.15    1.13    0.52    0.31    0.31    0.42    0.66    1.05    1.76    2.06
 2025 128   199     0     0    50.4    48.2     2.2     0.0   24.20   22.05    0.03    0.00    0.00   24.20   18.38   10.30    0.00    0.61     0.5     0.3    0.22    0.23    0.35    0.59    0.99    1.69    2.02    0.50    0.54    0.18    0.08    0.07    0.07    0.07    0.06    0.05    0.04    1.11    1.05    0.49    0.29    0.31    0.42    0.66    1.05    1.75    2.06
 2025 129   200     0     0    50.1    48.1     2.1     0.0   24.52   22.31    0.03    0.00    0.00   24.52   18.97   10.30    0.00    0.57     0.5     0.3    0.21    0.23    0.34    0.57    0.97    1.68    2.02    0.45    0.50    0.16    0.07    0.07    0.07    0.07    0.06    0.05    0.04    1.02    0.98    0.46    0.28    0.30    0.41    0.64    1.03    1.74    2.06
 2025 130   201     0     0    49.9    47.9     2.0     0.0   24.81   22.56    0.03    0.00    0.00   24.81   19.52   10.30    0.00    0.56     0.5     0.3    0.20    0.22    0.33    0.56    0.95    1.67    2.02    0.42    0.46    0.15    0.07    0.07    0.07    0.07    0.06    0.05    0.04    0.98    0.93    0.44    0.27    0.29    0.39    0.63    1.01    1.72    2.06
 2025 131   202     0     0    49.7    47.8     1.9     0.0   25.12   22.79    0.03    0.00    0.00   25.12   20.03   10.30    0.00    0.56     0.5     0.3    0.19    0.21    0.32    0.55    0.93    1.66    2.03    0.40    0.43    0.15    0.07    0.06    0.06    0.07    0.06    0.05    0.04    0.96    0.88    0.42    0.26    0.28    0.38    0.61    0.99    1.71    2.07
 2025 132   203     0     0    49.5    47.6     1.9     0.0   25.44   23.03    0.03    0.00    0.00   25.44   20.52   10.30    0.00    0.58     0.4     0.3    0.18    0.21    0.31    0.53    0.91    1.64    2.03    0.39    0.42    0.14    0.07    0.06    0.06    0.07    0.06    0.05    0.04    0.97    0.85    0.40    0.25    0.27    0.37    0.60    0.96    1.69    2.07
 2025 133   204     0     0    49.4    47.5     1.8     0.0   25.79   23.27    0.03    0.00    0.00   25.79   20.99   10.30    0.00    0.60     0.4     0.2    0.18    0.20    0.30    0.52    0.88    1.63    2.04    0.39    0.41    0.14    0.07    0.06    0.06    0.07    0.06    0.05    0.04    1.00    0.84    0.39    0.24    0.26    0.36    0.58    0.94    1.68    2.08
 2025 134   205     0     0    49.3    47.4     1.8     0.0   26.14   23.51    0.03    0.00    0.00   26.14   21.45   10.30    0.00    0.63     0.4     0.2    0.17    0.19    0.29    0.50    0.86    1.61    2.04    0.40    0.40    0.14    0.07    0.06    0.06    0.07    0.06    0.05    0.04    1.03    0.83    0.38    0.24    0.26    0.35    0.57    0.92    1.66    2.08
 2025 135   206     0     0    49.2    47.3     1.9     0.0   26.50   23.76    0.03    0.00    0.00   26.50   21.90   10.30    0.00    0.66     0.4     0.2    0.17    0.19    0.28    0.49    0.84    1.59    2.05    0.40    0.40    0.14    0.07    0.06    0.06    0.07    0.06    0.05    0.04    1.07    0.83    0.37    0.23    0.25    0.35    0.56    0.90    1.64    2.09
 2025 136   207     0     0    49.1    47.2     1.9     0.0   26.88   24.02    0.03    0.00    0.00   26.88   22.34   10.30    0.00    0.70     0.4     0.2    0.16    0.18    0.27    0.48    0.82    1.57    2.05    0.41    0.40    0.14    0.07    0.07    0.06    0.07    0.06    0.05    0.04    1.11    0.83    0.36    0.23    0.25    0.34    0.54    0.88    1.62    2.09
 2025 137   208     0     0    49.0    47.1     1.9     0.0   27.22   24.26    0.03    0.00    0.00   27.22   22.78   10.30    0.00    0.73     0.4     0.2    0.16    0.18    0.27    0.46    0.79    1.55    2.06    0.41    0.40    0.14    0.07    0.07    0.06    0.07    0.06    0.05    0.04    1.14    0.83    0.36    0.23    0.24    0.33    0.53    0.85    1.60    2.10
 2025 138   209     0     0    48.9    47.0     1.9     0.0   27.53   24.49    0.03    0.00    0.00   27.53   23.21   10.30    0.00    0.76     0.4     0.2    0.15    0.17    0.26    0.45    0.77    1.53    2.06    0.41    0.39    0.14    0.07    0.06    0.06    0.07    0.06    0.05    0.04    1.18    0.82    0.35    0.22    0.24    0.32    0.52    0.83    1.58    2.10
 2025 139   210     0     0    48.8    46.9     1.8     0.0   27.83   24.72    0.03    0.00    0.00   27.83   23.63   10.30    0.00    0.80     0.4     0.2    0.15    0.17    0.25    0.44    0.75    1.50    2.07    0.41    0.38    0.13    0.07    0.06    0.06    0.07    0.06    0.05    0.04    1.21    0.81    0.34    0.22    0.23    0.31    0.50    0.81    1.55    2.11
[...]
 2025 169   240   180     3    42.6    41.3     1.3     0.0   32.12  134.74    0.05    0.00    1.09   32.12  212.73   10.30    0.00    0.04     0.2     0.3    0.27    0.24    0.24    0.25    0.27    0.50    1.24    0.18    0.16    0.10    0.08    0.06    0.05    0.05    0.03    0.02    0.04    0.21    0.33    0.44    0.36    0.30    0.29    0.30    0.30    0.53    1.28
 2025 170   241   180     3    42.6    41.3     1.3     0.0   32.31  134.91    0.05    0.00    1.09   32.31  212.93   10.30    0.00    0.05     0.2     0.4    0.28    0.25    0.25    0.25    0.27    0.51    1.19    0.18    0.15    0.10    0.08    0.06    0.05    0.05    0.03    0.02    0.04    0.24    0.34    0.45    0.36    0.31    0.30    0.30    0.30    0.53    1.23
 2025 171   242   180     3    42.6    41.3     1.3     0.0   32.49  135.08    0.05    0.00    1.09   32.49  213.12   10.30    0.00    0.07     0.2     0.4    0.28    0.25    0.25    0.26    0.27    0.51    1.14    0.19    0.15    0.10    0.08    0.06    0.05    0.05    0.03    0.02    0.04    0.26    0.34    0.46    0.37    0.31    0.30    0.31    0.31    0.54    1.19
 2025 172   243   180     3    42.6    41.3     1.3     0.0   32.66  135.25    0.05    0.00    1.09   32.66  213.30   10.30    0.00    0.09     0.2     0.4    0.29    0.26    0.26    0.26    0.28    0.52    1.10    0.19    0.15    0.10    0.08    0.06    0.05    0.05    0.03    0.02    0.04    0.28    0.35    0.46    0.37    0.32    0.31    0.31    0.31    0.54    1.14
 2025 173   244   180     3    42.6    41.3     1.3     0.0   32.83  135.41    0.05    0.00    1.10   32.83  213.48   10.30    0.00    0.10     0.2     0.4    0.30    0.27    0.26    0.27    0.28    0.52    1.05    0.19    0.14    0.10    0.08    0.06    0.05    0.05    0.03    0.02    0.04    0.29    0.36    0.47    0.38    0.32    0.31    0.32    0.32    0.54    1.10
 2025 174   245   180     3    42.6    41.3     1.3     0.0   33.01  135.59    0.05    0.00    1.10   33.01  213.65   10.30    0.00    0.11     0.2     0.4    0.30    0.27    0.27    0.27    0.29    0.53    1.01    0.19    0.14    0.09    0.08    0.06    0.05    0.05    0.03    0.02    0.04    0.31    0.37    0.48    0.39    0.33    0.32    0.32    0.32    0.55    1.06
 2025 175   246   180     3    42.6    41.3     1.3     0.0   33.19  135.77    0.05    0.00    1.10   33.19  213.82   10.30    0.00    0.13     0.2     0.4    0.31    0.28    0.28    0.28    0.29    0.53    0.98    0.19    0.14    0.09    0.08    0.06    0.05    0.05    0.03    0.02    0.04    0.32    0.38    0.48    0.39    0.34    0.33    0.33    0.33    0.55    1.02
 2025 176   247   180     3    42.6    41.3     1.3     0.0   33.37  135.94    0.05    0.00    1.10   33.37  213.98   10.30    0.00    0.14     0.3     0.4    0.32    0.28    0.28    0.29    0.30    0.54    0.94    0.19    0.13    0.09    0.08    0.06    0.05    0.05    0.03    0.02    0.04    0.33    0.38    0.49    0.40    0.34    0.33    0.34    0.33    0.56    0.98
 2025 177   248   180     3    42.6    41.4     1.3     0.0   33.56  136.13    0.05    0.00    1.10   33.56  214.13   10.30    0.00    0.16     0.3     0.4    0.32    0.29    0.29    0.29    0.30    0.54    0.91    0.19    0.13    0.09    0.08    0.06    0.05    0.05    0.03    0.02    0.04    0.34    0.39    0.50    0.41    0.35    0.34    0.34    0.34    0.56    0.95
 2025 178   249   180     3    42.7    41.4     1.3     0.0   33.76  136.32    0.05    0.00    1.10   33.76  214.27   10.30    0.00    0.17     0.3     0.4    0.33    0.30    0.29    0.30    0.31    0.54    0.88    0.18    0.13    0.09    0.08    0.06    0.05    0.05    0.03    0.02    0.04    0.35    0.40    0.50    0.41    0.35    0.34    0.35    0.34    0.57    0.92
 2025 179   250   180     3    42.7    41.4     1.3     0.0   34.01  136.52    0.05    0.00    1.10   34.01  214.51   10.30    0.00    0.14     0.3     0.4    0.34    0.30    0.30    0.30    0.31    0.55    0.85    0.19    0.13    0.09    0.08    0.06    0.05    0.05    0.03    0.02    0.04    0.33    0.41    0.51    0.42    0.36    0.35    0.35    0.35    0.57    0.89
 2025 180   251   180     3    42.8    41.5     1.3     0.0   34.23  136.72    0.05    0.00    1.11   34.23  214.65   10.30    0.00    0.17     0.3     0.4    0.34    0.31    0.31    0.31    0.32    0.55    0.82    0.20    0.12    0.09    0.08    0.06    0.05    0.05    0.03    0.02    0.04    0.37    0.42    0.52    0.43    0.37    0.36    0.36    0.35    0.58    0.86
 2025 181   252   180     3    42.9    41.6     1.3     0.0   34.45  136.92    0.05    0.00    1.11   34.45  214.77   10.30    0.00    0.19     0.3     0.4    0.35    0.32    0.31    0.32    0.33    0.56    0.80    0.20    0.12    0.09    0.08    0.06    0.05    0.05    0.03    0.02    0.04    0.40    0.42    0.53    0.44    0.37    0.36    0.37    0.36    0.58    0.84
 2025 182   253   180     3    43.0    41.7     1.3     0.0   34.66  137.13    0.05    0.00    1.11   34.66  214.90   10.30    0.00    0.22     0.3     0.4    0.36    0.32    0.32    0.32    0.33    0.56    0.77    0.21    0.12    0.09    0.08    0.06    0.05    0.05    0.03    0.02    0.04    0.42    0.43    0.53    0.44    0.38    0.37    0.37    0.36    0.58    0.82
 2025 183   254   180     3    43.0    41.8     1.3     0.0   34.94  137.37    0.05    0.00    1.11   34.94  215.10   10.30    0.00    0.21     0.3     0.4    0.37    0.33    0.33    0.33    0.34    0.57    0.75    0.21    0.12    0.09    0.08    0.06    0.05    0.05    0.03    0.02    0.04    0.41    0.44    0.54    0.45    0.39    0.38    0.38    0.37    0.59    0.79
 2025 184   255   180     3    43.2    41.9     1.3     0.0   35.18  137.60    0.05    0.00    1.11   35.18  215.22   10.30    0.00    0.23     0.3     0.5    0.38    0.34    0.34    0.34    0.34    0.58    0.73    0.21    0.12    0.09    0.08    0.06    0.05    0.05    0.03    0.02    0.04    0.44    0.45    0.55    0.46    0.40    0.39    0.39    0.38    0.60    0.78
 2025 185   256   180     3    43.3    42.0     1.3     0.0   35.41  137.83    0.05    0.00    1.12   35.41  215.33   10.30    0.00    0.26     0.3     0.5    0.38    0.35    0.34    0.35    0.35    0.58    0.71    0.21    0.11    0.09    0.08    0.06    0.05    0.05    0.03    0.02    0.04    0.47    0.46    0.56    0.47    0.40    0.39    0.39    0.38    0.60    0.76
 2025 186   257   180     3    43.4    42.1     1.3     0.0   35.63  138.05    0.05    0.00    1.12   35.63  215.43   10.30    0.00    0.28     0.4     0.5    0.39    0.36    0.35    0.35    0.36    0.59    0.70    0.21    0.11    0.09    0.08    0.06    0.05    0.05    0.03    0.02    0.04    0.49    0.47    0.57    0.48    0.41    0.40    0.40    0.39    0.61    0.74
 2025 187   258   180     3    43.5    42.2     1.3     0.0   35.84  138.25    0.05    0.00    1.12   35.84  215.54   10.30    0.00    0.30     0.4     0.5    0.40    0.36    0.36    0.36    0.36    0.59    0.68    0.20    0.11    0.09    0.08    0.06    0.05    0.05    0.03    0.02    0.04    0.51    0.48    0.57    0.48    0.42    0.41    0.41    0.39    0.61    0.72
 2025 188   259   180     3    43.6    42.3     1.3     0.0   36.03  138.44    0.05    0.00    1.12   36.03  215.64   10.30    0.00    0.32     0.4     0.5    0.41    0.37    0.36    0.37    0.37    0.60    0.66    0.20    0.11    0.09    0.08    0.06    0.05    0.05    0.03    0.02    0.04    0.52    0.48    0.58    0.49    0.43    0.41    0.41    0.40    0.62    0.71
 2025 189   260   180     3    43.7    42.4     1.3     0.0   36.22  138.61    0.05    0.00    1.12   36.22  215.73   10.30    0.00    0.34     0.4     0.5    0.41    0.38    0.37    0.37    0.37    0.60    0.65    0.20    0.11    0.09    0.08    0.06    0.05    0.05    0.03    0.02    0.04    0.54    0.49    0.59    0.50    0.43    0.42    0.42    0.40    0.62    0.69
 2025 190   261   180     3    43.8    42.5     1.3     0.0   36.40  138.78    0.05    0.00    1.12   36.40  215.83   10.30    0.00    0.36     0.4     0.5    0.42    0.38    0.38    0.38    0.38    0.60    0.63    0.21    0.11    0.09    0.08    0.06    0.05    0.05    0.03    0.02    0.04    0.58    0.50    0.59    0.50    0.44    0.42    0.43    0.41    0.62    0.67
 2025 191   262   180     3    43.8    42.6     1.3     0.0   36.57  138.94    0.05    0.00    1.12   36.57  215.92   10.30    0.00    0.39     0.4     0.5    0.42    0.39    0.38    0.38    0.38    0.61    0.61    0.22    0.11    0.09    0.09    0.06    0.05    0.05    0.03    0.02    0.04    0.61    0.50    0.60    0.51    0.44    0.43    0.43    0.41    0.63    0.66
 2025 192   263   180     3    43.9    42.6     1.3     0.0   36.73  139.08    0.05    0.00    1.13   36.73  216.01   10.30    0.00    0.41     0.4     0.5    0.43    0.39    0.39    0.39    0.38    0.61    0.60    0.22    0.11    0.09    0.09    0.06    0.05    0.05    0.03    0.02    0.04    0.63    0.51    0.60    0.51    0.45    0.43    0.43    0.42    0.63    0.64
 2025 193   264   180     3    44.0    42.7     1.3     0.0   36.89  139.23    0.05    0.00    1.13   36.88  216.09   10.30    0.00    0.43     0.4     0.5    0.43    0.40    0.39    0.39    0.39    0.61    0.58    0.23    0.11    0.09    0.09    0.06    0.05    0.05    0.03    0.02    0.04    0.66    0.51    0.61    0.52    0.45    0.44    0.44    0.42    0.63    0.62
 2025 194   265   180     3    44.0    42.7     1.3     0.0   37.04  139.37    0.05    0.00    1.13   37.04  216.17   10.30    0.00    0.45     0.4     0.5    0.44    0.40    0.39    0.39    0.39    0.62    0.57    0.23    0.11    0.09    0.09    0.06    0.05    0.05    0.03    0.02    0.04    0.68    0.51    0.61    0.52    0.46    0.44    0.44    0.42    0.64    0.61
 2025 195   266   180     3    44.1    42.8     1.3     0.0   37.20  139.53    0.05    0.00    1.13   37.20  216.25   10.30    0.00    0.47     0.4     0.5    0.44    0.40    0.40    0.40    0.40    0.62    0.56    0.23    0.11    0.09    0.09    0.06    0.05    0.05    0.03    0.02    0.04    0.70    0.52    0.62    0.53    0.46    0.45    0.45    0.43    0.64    0.60
 2025 196   267   180     3    43.8    42.5     1.2     0.0   37.49  139.68    0.05    0.00    1.13   37.49  216.90   10.30    0.00    0.01     0.4     0.5    0.45    0.41    0.40    0.40    0.40    0.62    0.54    0.16    0.11    0.09    0.09    0.06    0.05    0.05    0.03    0.02    0.04    0.17    0.52    0.62    0.54    0.47    0.45    0.45    0.43    0.65    0.59
 2025 197   268   180     3    44.1    42.7     1.3     0.0   37.77  139.87    0.05    0.00    1.13   37.77  216.90   10.30    0.00    0.06     0.4     0.5    0.46    0.42    0.41    0.41    0.41    0.63    0.55    0.26    0.12    0.09    0.09    0.06    0.05    0.05    0.03    0.02    0.04    0.32    0.53    0.63    0.54    0.47    0.46    0.46    0.44    0.65    0.60
 2025 198   269   180     3    44.4    42.9     1.5     0.0   38.17  140.09    0.05    0.00    1.14   38.17  216.90   10.30    0.00    0.19     0.7     0.5    0.43    0.41    0.41    0.40    0.42    0.61    0.60    0.33    0.26    0.09    0.09    0.06    0.05    0.05    0.03    0.02    0.04    0.52    0.92    0.62    0.52    0.47    0.46    0.45    0.45    0.63    0.64
 2025 199   270   180     3    44.9    43.2     1.7     0.0   38.59  140.35    0.05    0.00    1.15   38.59  216.90   10.30    0.00    0.32     0.8     0.5    0.42    0.41    0.42    0.40    0.42    0.61    0.62    0.37    0.40    0.09    0.09    0.06    0.05    0.05    0.03    0.02    0.05    0.69    1.17    0.64    0.51    0.47    0.47    0.45    0.45    0.63    0.67
 2025 200   271   180     3    45.2    43.5     1.7     0.0   38.99  140.64    0.05    0.00    1.17   38.99  216.90   10.30    0.00    0.61     1.0     0.5    0.40    0.40    0.41    0.39    0.43    0.59    0.68    0.39    0.48    0.10    0.09    0.06    0.05    0.05    0.03    0.02    0.05    1.00    1.51    0.62    0.48    0.46    0.46    0.44    0.47    0.61    0.72
 2025 201   272   180     3    45.6    43.8     1.8     0.0   39.38  140.95    0.05    0.00    1.17   39.38  216.90   10.30    0.00    0.71     1.2     0.5    0.40    0.41    0.42    0.39    0.44    0.59    0.68    0.42    0.54    0.10    0.09    0.06    0.05    0.05    0.03    0.02    0.05    1.12    1.69    0.63    0.49    0.47    0.47    0.44    0.47    0.61    0.73
 2025 202   273   180     3    46.0    44.1     1.9     0.0   39.78  141.29    0.05    0.00    1.18   39.78  216.90   10.30    0.00    0.46     1.1     0.8    0.41    0.41    0.42    0.40    0.44    0.60    0.69    0.44    0.59    0.10    0.09    0.06    0.05    0.05    0.03    0.02    0.05    0.90    1.72    0.90    0.49    0.47    0.47    0.45    0.47    0.62    0.74
 2025 203   274   180     3    46.4    44.5     2.0     0.0   40.18  141.61    0.05    0.00    1.19   40.18  216.90   10.30    0.00    0.54     1.1     1.0    0.40    0.41    0.42    0.40    0.44    0.59    0.72    0.46    0.62    0.12    0.09    0.06    0.05    0.05    0.03    0.02    0.05    1.00    1.75    1.07    0.49    0.47    0.47    0.45    0.48    0.61    0.77
 2025 204   275   180     3    46.8    44.8     2.0     0.0   40.64  141.99    0.05    0.00    1.20   40.64  216.90   10.30    0.00    0.73     1.2     1.1    0.39    0.41    0.42    0.40    0.44    0.58    0.76    0.46    0.65    0.14    0.09    0.06    0.05    0.05    0.03    0.02    0.05    1.19    1.82    1.23    0.48    0.47    0.47    0.45    0.48    0.60    0.80
 2025 205   276   180     3    47.3    45.3     2.0     0.0   41.13  142.42    0.05    0.00    1.22   41.12  216.90   10.30    0.00    0.96     1.3     1.2    0.37    0.41    0.42    0.39    0.45    0.57    0.80    0.44    0.64    0.17    0.09    0.06    0.05    0.05    0.03    0.02    0.05    1.40    1.96    1.39    0.46    0.47    0.47    0.44    0.48    0.59    0.85
 2025 206   277   180     3    47.8    45.7     2.1     0.0   41.59  142.84    0.05    0.00    1.23   41.59  216.90   10.30    0.00    1.03     1.4     1.3    0.45    0.41    0.42    0.39    0.44    0.57    0.84    0.43    0.64    0.20    0.09    0.06    0.05    0.05    0.03    0.02    0.05    1.46    2.04    1.52    0.55    0.47    0.47    0.44    0.48    0.59    0.88
 2025 207   278   180     3    48.2    46.1     2.1     0.0   42.02  143.24    0.05    0.00    1.25   42.02  216.90   10.30    0.00    1.06     1.4     1.4    0.61    0.40    0.41    0.39    0.44    0.56    0.87    0.43    0.63    0.22    0.09    0.06    0.05    0.05    0.03    0.02    0.05    1.48    2.07    1.61    0.70    0.46    0.46    0.44    0.48    0.58    0.92
 2025 208   279   180     3    48.6    46.5     2.1     0.0   42.45  143.62    0.05    0.00    1.26   42.45  216.90   10.30    0.00    1.09     1.4     1.4    0.80    0.40    0.41    0.39    0.44    0.56    0.90    0.43    0.64    0.23    0.09    0.06    0.05    0.05    0.03    0.02    0.05    1.52    2.07    1.66    0.89    0.46    0.46    0.44    0.47    0.58    0.95
 2025 209   280   180     3    49.0    46.9     2.1     0.0   42.88  144.02    0.06    0.00    1.28   42.88  216.90   10.30    0.00    1.04     1.4     1.5    1.04    0.40    0.41    0.39    0.44    0.56    0.93    0.43    0.64    0.24    0.09    0.06    0.05    0.05    0.03    0.02    0.05    1.47    2.07    1.70    1.13    0.46    0.46    0.44    0.47    0.58    0.97
 2025 210   281   180     3    49.4    47.2     2.2     0.0   43.29  144.40    0.06    0.00    1.29   43.29  216.90   10.30    0.00    1.09     1.4     1.5    1.27    0.40    0.41    0.39    0.44    0.56    0.95    0.43    0.65    0.24    0.09    0.06    0.05    0.05    0.03    0.02    0.05    1.52    2.05    1.69    1.37    0.46    0.46    0.44    0.47    0.58    1.00
 2025 211   282   180     3    49.8    47.6     2.1     0.0   43.71  144.82    0.07    0.00    1.30   43.71  216.90   10.30    0.00    1.26     1.4     1.4    1.40    0.44    0.41    0.39    0.43    0.55    0.98    0.41    0.64    0.24    0.10    0.06    0.05    0.05    0.03    0.02    0.05    1.67    2.09    1.69    1.50    0.50    0.46    0.44    0.47    0.57    1.03
 2025 212   283   180     3    50.2    48.0     2.1     0.0   44.11  145.23    0.08    0.00    1.31   44.11  216.90   10.30    0.00    1.35     1.5     1.5    1.45    0.55    0.41    0.38    0.43    0.56    1.00    0.40    0.62    0.24    0.10    0.06    0.05    0.05    0.03    0.02    0.05    1.76    2.13    1.70    1.56    0.61    0.46    0.44    0.47    0.57    1.05
 2025 213   284   180     3    50.6    48.4     2.1     0.0   44.51  145.63    0.08    0.00    1.33   44.51  216.90   10.30    0.00    1.33     1.6     1.5    1.49    0.67    0.40    0.38    0.43    0.56    1.03    0.39    0.61    0.25    0.11    0.06    0.05    0.05    0.03    0.02    0.05    1.72    2.21    1.75    1.60    0.74    0.46    0.43    0.47    0.57    1.07
 2025 214   285   180     3    50.9    48.8     2.1     0.0   44.89  146.01    0.09    0.00    1.34   44.89  216.90   10.30    0.00    1.27     1.6     1.6    1.54    0.84    0.40    0.38    0.43    0.56    1.05    0.39    0.59    0.25    0.11    0.06    0.05    0.05    0.03    0.02    0.05    1.65    2.20    1.80    1.65    0.90    0.46    0.43    0.46    0.57    1.10
 2025 215   286   180     3    51.3    49.2     2.1     0.0   45.26  146.36    0.09    0.00    1.36   45.26  216.90   10.30    0.00    1.35     1.6     1.6    1.57    1.02    0.40    0.38    0.43    0.56    1.07    0.39    0.59    0.24    0.11    0.07    0.05    0.05    0.03    0.02    0.05    1.74    2.17    1.80    1.68    1.08    0.45    0.43    0.46    0.57    1.12
 2025 216   287   180     3    51.6    49.5     2.1     0.0   45.63  146.73    0.10    0.00    1.37   45.62  216.90   10.30    0.00    1.39     1.6     1.6    1.58    1.20    0.40    0.38    0.43    0.56    1.09    0.37    0.58    0.24    0.11    0.07    0.05    0.05    0.03    0.02    0.04    1.76    2.18    1.80    1.69    1.26    0.45    0.43    0.46    0.58    1.14
 2025 217   288   180     3    52.0    49.9     2.1     0.0   46.00  147.11    0.11    0.00    1.38   46.00  216.90   10.30    0.00    1.46     1.6     1.6    1.58    1.37    0.40    0.38    0.43    0.56    1.11    0.37    0.57    0.24    0.11    0.07    0.05    0.05    0.04    0.02    0.04    1.83    2.17    1.80    1.69    1.44    0.45    0.43    0.46    0.58    1.15
 2025 218   289   180     3    52.3    50.3     2.1     0.0   46.41  147.51    0.11    0.00    1.39   46.41  216.90   10.30    0.00    1.79     1.6     1.5    1.51    1.49    0.49    0.37    0.43    0.56    1.13    0.36    0.56    0.24    0.11    0.08    0.05    0.05    0.04    0.02    0.04    2.15    2.17    1.75    1.62    1.57    0.54    0.43    0.46    0.58    1.18
 2025 219   290   180     3    52.7    50.7     2.1     0.0   46.81  147.89    0.11    0.00    1.41   46.81  216.90   10.30    0.00    2.31     1.7     1.5    1.48    1.48    0.50    0.37    0.43    0.56    1.16    0.34    0.56    0.24    0.11    0.08    0.05    0.05    0.04    0.02    0.04    2.65    2.25    1.75    1.59    1.57    0.55    0.43    0.46    0.58    1.21
 2025 220   291   180     3    53.1    51.1     2.0     0.0   47.20  148.29    0.11    0.00    1.44   47.20  216.90   10.30    0.00    2.90     1.8     1.5    1.47    1.45    0.49    0.37    0.43    0.57    1.19    0.32    0.55    0.24    0.11    0.09    0.05    0.05    0.04    0.02    0.04    3.22    2.32    1.75    1.58    1.54    0.54    0.42    0.46    0.59    1.23
 2025 221   292   180     3    53.5    51.5     2.0     0.0   47.63  148.71    0.11    0.00    1.44   47.63  216.90   10.30    0.00    3.01     1.9     1.6    1.49    1.47    0.49    0.37    0.43    0.57    1.20    0.32    0.54    0.24    0.11    0.09    0.05    0.05    0.04    0.02    0.04    3.32    2.43    1.80    1.61    1.56    0.55    0.43    0.47    0.59    1.24
